/*--------------------------------*- C++ -*----------------------------------*\
| =========                 |                                                 |
| \\      /  F ield         | OpenFOAM: The Open Source CFD Toolbox           |
|  \\    /   O peration     | Version:  2212                                  |
|   \\  /    A nd           | Website:  www.openfoam.com                      |
|    \\/     M anipulation  |                                                 |
\*---------------------------------------------------------------------------*/
FoamFile
{
    version     2.0;
    format      ascii;
    arch        "LSB;label=32;scalar=64";
    class       extendedFeatureEdgeMesh;
    location    "constant/extendedFeatureEdgeMesh";
    object      fluidDomain.extendedFeatureEdgeMesh;
}
// * * * * * * * * * * * * * * * * * * * * * * * * * * * * * * * * * * * * * //

// points

652
(
(-75 100 0)
(-75 100 100)
(-75 -100 0)
(-75 -100 100)
(75 100 100)
(75 -100 100)
(75 100 0)
(75 -100 0)
(-25 20 50)
(-25 -20 50)
(-11 -20 50)
(-3 -20 50)
(3 -20 50)
(17 -20 50)
(25 -20 50)
(11 -20 50)
(-17 -20 50)
(25 20 50)
(3 20 50)
(-3 20 50)
(-11 20 50)
(17 20 50)
(11 20 50)
(-17 20 50)
(-25 -20 4.4408921e-15)
(25 -20 4.4408921e-15)
(-25 20 -4.4408921e-15)
(25 20 -4.4408921e-15)
(11 -20 10)
(17 -20 10)
(3 -20 10)
(-3 -20 10)
(-17 -20 10)
(-11 -20 10)
(11 20 10)
(17 20 10)
(-3 20 10)
(-17 20 10)
(-11 20 10)
(3 20 10)
(-75 100 15)
(-75 100 10)
(-75 100 5)
(-75 100 85)
(-75 100 80)
(-75 100 95)
(-75 100 90)
(-75 100 75)
(-75 100 70)
(-75 100 65)
(-75 100 60)
(-75 100 35)
(-75 100 30)
(-75 100 25)
(-75 100 20)
(-75 100 40)
(-75 100 55)
(-75 100 50)
(-75 100 45)
(-75 -100 5)
(-75 -100 10)
(-75 -100 20)
(-75 -100 25)
(-75 -100 15)
(-75 -100 30)
(-75 -100 35)
(-75 -100 40)
(-75 -100 45)
(-75 -100 60)
(-75 -100 65)
(-75 -100 55)
(-75 -100 70)
(-75 -100 75)
(-75 -100 80)
(-75 -100 85)
(-75 -100 90)
(-75 -100 95)
(-75 -100 50)
(-70 100 100)
(-30 100 100)
(-35 100 100)
(-20 100 100)
(-25 100 100)
(-40 100 100)
(-45 100 100)
(-65 100 100)
(-60 100 100)
(-55 100 100)
(-50 100 100)
(30 100 100)
(25 100 100)
(20 100 100)
(70 100 100)
(65 100 100)
(60 100 100)
(40 100 100)
(35 100 100)
(45 100 100)
(55 100 100)
(50 100 100)
(15 100 100)
(10 100 100)
(-15 100 100)
(-10 100 100)
(-5 100 100)
(5 100 100)
(0 100 100)
(-70 -100 100)
(-65 -100 100)
(-60 -100 100)
(-55 -100 100)
(-50 -100 100)
(-45 -100 100)
(-40 -100 100)
(-35 -100 100)
(-30 -100 100)
(-20 -100 100)
(-15 -100 100)
(-25 -100 100)
(-10 -100 100)
(-5 -100 100)
(5 -100 100)
(10 -100 100)
(0 -100 100)
(15 -100 100)
(20 -100 100)
(30 -100 100)
(35 -100 100)
(25 -100 100)
(40 -100 100)
(45 -100 100)
(55 -100 100)
(60 -100 100)
(50 -100 100)
(65 -100 100)
(70 -100 100)
(70 100 2.8421709e-14)
(30 100 2.8421709e-14)
(35 100 2.8421709e-14)
(20 100 2.8421709e-14)
(25 100 2.8421709e-14)
(40 100 2.8421709e-14)
(45 100 2.8421709e-14)
(65 100 2.8421709e-14)
(60 100 2.8421709e-14)
(55 100 2.8421709e-14)
(50 100 2.8421709e-14)
(-30 100 2.8421709e-14)
(-25 100 2.8421709e-14)
(-20 100 2.8421709e-14)
(-70 100 2.8421709e-14)
(-65 100 2.8421709e-14)
(-60 100 2.8421709e-14)
(-40 100 2.8421709e-14)
(-35 100 2.8421709e-14)
(-45 100 2.8421709e-14)
(-55 100 2.8421709e-14)
(-50 100 2.8421709e-14)
(-15 100 2.8421709e-14)
(-10 100 2.8421709e-14)
(15 100 2.8421709e-14)
(10 100 2.8421709e-14)
(5 100 2.8421709e-14)
(-5 100 2.8421709e-14)
(-1.4210855e-14 100 2.8421709e-14)
(70 -100 -2.8421709e-14)
(65 -100 -2.8421709e-14)
(60 -100 -2.8421709e-14)
(55 -100 -2.8421709e-14)
(50 -100 -2.8421709e-14)
(45 -100 -2.8421709e-14)
(40 -100 -2.8421709e-14)
(35 -100 -2.8421709e-14)
(30 -100 -2.8421709e-14)
(20 -100 -2.8421709e-14)
(15 -100 -2.8421709e-14)
(25 -100 -2.8421709e-14)
(10 -100 -2.8421709e-14)
(5 -100 -2.8421709e-14)
(-5 -100 -2.8421709e-14)
(-10 -100 -2.8421709e-14)
(-1.4210855e-14 -100 -2.8421709e-14)
(-15 -100 -2.8421709e-14)
(-20 -100 -2.8421709e-14)
(-30 -100 -2.8421709e-14)
(-35 -100 -2.8421709e-14)
(-25 -100 -2.8421709e-14)
(-40 -100 -2.8421709e-14)
(-45 -100 -2.8421709e-14)
(-55 -100 -2.8421709e-14)
(-60 -100 -2.8421709e-14)
(-50 -100 -2.8421709e-14)
(-65 -100 -2.8421709e-14)
(-70 -100 -2.8421709e-14)
(75 100 85)
(75 100 90)
(75 100 95)
(75 100 15)
(75 100 20)
(75 100 5)
(75 100 10)
(75 100 25)
(75 100 30)
(75 100 35)
(75 100 40)
(75 100 65)
(75 100 70)
(75 100 75)
(75 100 80)
(75 100 60)
(75 100 45)
(75 100 50)
(75 100 55)
(75 -100 95)
(75 -100 90)
(75 -100 80)
(75 -100 75)
(75 -100 85)
(75 -100 70)
(75 -100 65)
(75 -100 60)
(75 -100 55)
(75 -100 40)
(75 -100 35)
(75 -100 45)
(75 -100 30)
(75 -100 25)
(75 -100 20)
(75 -100 15)
(75 -100 10)
(75 -100 5)
(75 -100 50)
(-75 90 -2e-14)
(-75 85 -1.89e-14)
(-75 95 -2.1100001e-14)
(-75 55 -1.23e-14)
(-75 50 -1.12e-14)
(-75 45 -1.01e-14)
(-75 60 -1.34e-14)
(-75 75 -1.67e-14)
(-75 70 -1.5600001e-14)
(-75 80 -1.7799999e-14)
(-75 65 -1.45e-14)
(-75 90 100)
(-75 95 100)
(-75 80 100)
(-75 85 100)
(-75 50 100)
(-75 55 100)
(-75 60 100)
(-75 65 100)
(-75 75 100)
(-75 70 100)
(-75 -20 4.2000002e-15)
(-75 -25 5.2999999e-15)
(-75 -30 6.4000001e-15)
(-75 -40 8.6000001e-15)
(-75 -45 9.7000002e-15)
(-75 -50 1.08e-14)
(-75 -60 1.3e-14)
(-75 -65 1.41e-14)
(-75 -55 1.19e-14)
(-75 -95 2.07e-14)
(-75 -90 1.96e-14)
(-75 -75 1.63e-14)
(-75 -80 1.74e-14)
(-75 -70 1.5199999e-14)
(-75 -85 1.8499999e-14)
(-75 -35 7.4999999e-15)
(-75 -25 100)
(-75 -20 100)
(-75 -45 100)
(-75 -40 100)
(-75 -60 100)
(-75 -55 100)
(-75 -70 100)
(-75 -65 100)
(-75 -50 100)
(-75 -95 100)
(-75 -90 100)
(-75 -85 100)
(-75 -75 100)
(-75 -80 100)
(-75 -35 100)
(-75 -30 100)
(-75 -15 100)
(-75 -10 100)
(-75 1.4210855e-14 100)
(-75 5 100)
(-75 -5 100)
(-75 35 100)
(-75 40 100)
(-75 45 100)
(-75 30 100)
(-75 15 100)
(-75 20 100)
(-75 10 100)
(-75 25 100)
(-75 -15 3.1e-15)
(-75 0 -2e-16)
(-75 -5 9.0000004e-16)
(-75 10 -2.4000001e-15)
(-75 5 -1.3e-15)
(-75 -10 2e-15)
(-75 40 -9.0000004e-15)
(-75 35 -7.9000002e-15)
(-75 30 -6.8e-15)
(-75 25 -5.6999998e-15)
(-75 15 -3.5000001e-15)
(-75 20 -4.6e-15)
(75 95 100)
(75 85 100)
(75 90 100)
(75 65 100)
(75 70 100)
(75 75 100)
(75 80 100)
(75 20 100)
(75 25 100)
(75 10 100)
(75 15 100)
(75 1.4210855e-14 100)
(75 5 100)
(75 -20 100)
(75 -15 100)
(75 -10 100)
(75 -5 100)
(75 -75 100)
(75 -70 100)
(75 -65 100)
(75 -85 100)
(75 -80 100)
(75 -95 100)
(75 -90 100)
(75 -60 100)
(75 -55 100)
(75 -45 100)
(75 -40 100)
(75 -50 100)
(75 -25 100)
(75 -35 100)
(75 -30 100)
(75 30 100)
(75 35 100)
(75 45 100)
(75 50 100)
(75 40 100)
(75 55 100)
(75 60 100)
(75 95 -2.1100001e-14)
(75 90 -2e-14)
(75 80 -1.7799999e-14)
(75 75 -1.67e-14)
(75 70 -1.5600001e-14)
(75 85 -1.89e-14)
(75 20 -4.6e-15)
(75 15 -3.5000001e-15)
(75 10 -2.4000001e-15)
(75 5 -1.3e-15)
(75 -5 9.0000004e-16)
(75 -10 2e-15)
(75 -15 3.1e-15)
(75 0 -2e-16)
(75 25 -5.6999998e-15)
(75 -65 1.41e-14)
(75 -70 1.5199999e-14)
(75 -75 1.63e-14)
(75 -80 1.74e-14)
(75 -95 2.07e-14)
(75 -85 1.8499999e-14)
(75 -90 1.96e-14)
(75 -60 1.3e-14)
(75 -55 1.19e-14)
(75 -50 1.08e-14)
(75 -45 9.7000002e-15)
(75 -20 4.2000002e-15)
(75 -25 5.2999999e-15)
(75 -30 6.4000001e-15)
(75 -40 8.6000001e-15)
(75 -35 7.4999999e-15)
(-20 -20 4.4408921e-15)
(-15 -20 4.4408921e-15)
(-10 -20 4.4408921e-15)
(-5 -20 4.4408921e-15)
(0 -20 4.4408921e-15)
(5 -20 4.4408921e-15)
(10 -20 4.4408921e-15)
(15 -20 4.4408921e-15)
(20 -20 4.4408921e-15)
(75 30 -6.8e-15)
(75 45 -1.01e-14)
(75 40 -9.0000004e-15)
(75 35 -7.9000002e-15)
(75 65 -1.45e-14)
(75 60 -1.34e-14)
(75 50 -1.12e-14)
(75 55 -1.23e-14)
(20 20 -4.4408921e-15)
(25 15 -3.3306691e-15)
(25 10 -2.220446e-15)
(25 5 -1.110223e-15)
(25 0 0)
(25 -15 3.3306691e-15)
(25 -10 2.220446e-15)
(25 -5 1.110223e-15)
(-25 15 -3.3306691e-15)
(-25 10 -2.220446e-15)
(-25 5 -1.110223e-15)
(-25 -15 3.3306691e-15)
(-25 -10 2.220446e-15)
(-25 -5 1.110223e-15)
(-25 0 0)
(-20 20 -4.4408921e-15)
(-15 20 -4.4408921e-15)
(-10 20 -4.4408921e-15)
(-5 20 -4.4408921e-15)
(5 20 -4.4408921e-15)
(0 20 -4.4408921e-15)
(10 20 -4.4408921e-15)
(15 20 -4.4408921e-15)
(17 15 10)
(17 0 10)
(17 5 10)
(17 10 10)
(17 -15 10)
(17 -10 10)
(17 -5 10)
(11 5 10)
(11 10 10)
(11 15 10)
(11 -15 10)
(11 -10 10)
(11 0 10)
(11 -5 10)
(3 15 10)
(3 0 10)
(3 5 10)
(3 10 10)
(3 -15 10)
(3 -10 10)
(3 -5 10)
(-3 5 10)
(-3 10 10)
(-3 15 10)
(-3 -15 10)
(-3 -10 10)
(-3 0 10)
(-3 -5 10)
(-11 15 10)
(-11 0 10)
(-11 5 10)
(-11 10 10)
(-11 -15 10)
(-11 -10 10)
(-11 -5 10)
(-17 5 10)
(-17 10 10)
(-17 15 10)
(-17 -15 10)
(-17 -10 10)
(-17 0 10)
(-17 -5 10)
(-25 20 5)
(-25 -20 10)
(-25 -20 5)
(-25 20 25)
(-25 20 30)
(-25 20 20)
(-25 20 40)
(-25 20 45)
(-25 10 50)
(-25 5 50)
(-25 15 50)
(-25 20 35)
(-25 -20 25)
(-25 -20 20)
(-25 -20 35)
(-25 -20 30)
(-25 1.0658141e-14 50)
(-25 -5 50)
(-25 -10 50)
(-25 -20 45)
(-25 -15 50)
(-25 -20 40)
(-25 -20 15)
(-25 20 10)
(-25 20 15)
(-7 -20 50)
(-11 -20 45)
(3 -20 45)
(3 -20 40)
(-3 -20 45)
(11 -20 40)
(11 -20 35)
(11 -20 45)
(25 -20 45)
(21 -20 50)
(17 -20 30)
(17 -20 35)
(25 -20 40)
(25 -20 35)
(25 -20 30)
(17 -20 40)
(17 -20 45)
(7 -20 50)
(17 -20 15)
(17 -20 20)
(14 -20 10)
(11 -20 15)
(25 -20 25)
(25 -20 20)
(25 -20 15)
(25 -20 5)
(25 -20 10)
(17 -20 25)
(11 -20 20)
(11 -20 30)
(11 -20 25)
(0 -20 10)
(-3 -20 15)
(-17 -20 20)
(-17 -20 15)
(-17 -20 25)
(-14 -20 10)
(-11 -20 15)
(-3 -20 40)
(-17 -20 35)
(-17 -20 30)
(-17 -20 40)
(-21 -20 50)
(-17 -20 45)
(-11 -20 40)
(-11 -20 30)
(-11 -20 35)
(-11 -20 25)
(-11 -20 20)
(3 -20 35)
(3 -20 30)
(3 -20 25)
(-3 -20 35)
(-3 -20 30)
(-3 -20 25)
(-3 -20 20)
(3 -20 15)
(3 -20 20)
(25 20 10)
(25 20 5)
(25 -10 50)
(25 -5 50)
(25 -15 50)
(25 20 25)
(25 20 20)
(25 20 35)
(25 20 30)
(25 1.0658141e-14 50)
(25 5 50)
(25 10 50)
(25 20 45)
(25 15 50)
(25 20 40)
(25 20 15)
(-21 20 50)
(11 20 15)
(14 20 10)
(17 20 20)
(17 20 15)
(-3 20 40)
(-3 20 45)
(3 20 45)
(7 20 50)
(-7 20 50)
(11 20 40)
(11 20 45)
(17 20 35)
(17 20 30)
(11 20 35)
(21 20 50)
(17 20 45)
(17 20 40)
(17 20 25)
(11 20 30)
(11 20 20)
(11 20 25)
(3 20 40)
(-3 20 35)
(-17 20 40)
(-17 20 45)
(-17 20 30)
(-17 20 35)
(-17 20 25)
(-11 20 40)
(-11 20 35)
(-11 20 45)
(0 20 10)
(-17 20 15)
(-17 20 20)
(-11 20 20)
(-11 20 15)
(-14 20 10)
(-11 20 25)
(-11 20 30)
(3 20 15)
(3 20 20)
(3 20 25)
(-3 20 15)
(-3 20 20)
(-3 20 25)
(-3 20 30)
(3 20 35)
(3 20 30)
(-17 10 50)
(-17 5 50)
(-17 15 50)
(-17 -15 50)
(-17 -10 50)
(-17 1.0658141e-14 50)
(-17 -5 50)
(17 10 50)
(17 15 50)
(17 -15 50)
(17 -10 50)
(17 -5 50)
(17 1.0658141e-14 50)
(17 5 50)
(11 15 50)
(11 1.0658141e-14 50)
(11 5 50)
(11 10 50)
(11 -15 50)
(11 -10 50)
(11 -5 50)
(3 10 50)
(3 15 50)
(3 -15 50)
(3 -10 50)
(3 -5 50)
(3 1.0658141e-14 50)
(3 5 50)
(-3 15 50)
(-3 1.0658141e-14 50)
(-3 5 50)
(-3 10 50)
(-3 -15 50)
(-3 -10 50)
(-3 -5 50)
(-11 10 50)
(-11 15 50)
(-11 -15 50)
(-11 -10 50)
(-11 -5 50)
(-11 1.0658141e-14 50)
(-11 5 50)
)

// edges

672
(
(40 41)
(41 42)
(42 0)
(43 44)
(1 45)
(46 43)
(45 46)
(44 47)
(47 48)
(48 49)
(49 50)
(51 52)
(53 54)
(52 53)
(54 40)
(55 51)
(50 56)
(56 57)
(58 55)
(57 58)
(59 60)
(61 62)
(60 63)
(63 61)
(64 65)
(66 67)
(65 66)
(62 64)
(2 59)
(68 69)
(70 68)
(71 72)
(72 73)
(74 75)
(73 74)
(69 71)
(76 3)
(75 76)
(77 70)
(67 77)
(78 1)
(79 80)
(81 82)
(82 79)
(83 84)
(80 83)
(85 78)
(86 85)
(87 86)
(84 88)
(88 87)
(89 90)
(90 91)
(4 92)
(93 94)
(92 93)
(95 96)
(96 89)
(97 95)
(98 99)
(94 98)
(99 97)
(100 101)
(91 100)
(102 81)
(103 102)
(104 103)
(105 106)
(101 105)
(106 104)
(3 107)
(108 109)
(107 108)
(109 110)
(111 112)
(112 113)
(114 115)
(113 114)
(116 117)
(118 116)
(119 120)
(117 119)
(115 118)
(110 111)
(121 122)
(123 121)
(124 125)
(122 124)
(126 127)
(128 126)
(129 130)
(127 129)
(125 128)
(131 132)
(133 131)
(134 135)
(132 134)
(135 5)
(130 133)
(120 123)
(136 6)
(137 138)
(139 140)
(140 137)
(141 142)
(138 141)
(143 136)
(144 143)
(145 144)
(142 146)
(146 145)
(147 148)
(148 149)
(0 150)
(151 152)
(150 151)
(153 154)
(154 147)
(155 153)
(156 157)
(152 156)
(157 155)
(158 159)
(149 158)
(160 139)
(161 160)
(162 161)
(163 164)
(159 163)
(164 162)
(7 165)
(166 167)
(165 166)
(167 168)
(169 170)
(170 171)
(172 173)
(171 172)
(174 175)
(176 174)
(177 178)
(175 177)
(173 176)
(168 169)
(179 180)
(181 179)
(182 183)
(180 182)
(184 185)
(186 184)
(187 188)
(185 187)
(183 186)
(189 190)
(191 189)
(192 193)
(190 192)
(193 2)
(188 191)
(178 181)
(194 195)
(195 196)
(196 4)
(197 198)
(6 199)
(200 197)
(199 200)
(198 201)
(201 202)
(202 203)
(203 204)
(205 206)
(207 208)
(206 207)
(208 194)
(209 205)
(204 210)
(210 211)
(212 209)
(211 212)
(213 214)
(215 216)
(214 217)
(217 215)
(218 219)
(220 221)
(219 220)
(216 218)
(5 213)
(222 223)
(224 222)
(225 226)
(226 227)
(228 229)
(227 228)
(223 225)
(230 7)
(229 230)
(231 224)
(221 231)
(232 233)
(234 232)
(0 234)
(235 236)
(236 237)
(238 235)
(239 240)
(233 241)
(241 239)
(240 242)
(242 238)
(243 244)
(245 246)
(246 243)
(244 1)
(247 248)
(248 249)
(249 250)
(251 245)
(252 251)
(250 252)
(253 254)
(254 255)
(256 257)
(257 258)
(259 260)
(261 259)
(258 261)
(262 2)
(263 262)
(264 265)
(260 266)
(266 264)
(265 267)
(267 263)
(268 256)
(255 268)
(269 270)
(271 272)
(273 274)
(275 276)
(276 273)
(274 277)
(277 271)
(3 278)
(278 279)
(279 280)
(281 275)
(282 281)
(280 282)
(272 283)
(284 269)
(283 284)
(270 285)
(285 286)
(287 288)
(289 287)
(286 289)
(290 291)
(292 247)
(291 292)
(293 290)
(294 295)
(288 296)
(296 294)
(295 297)
(297 293)
(298 253)
(299 300)
(301 302)
(302 299)
(300 303)
(303 298)
(304 305)
(237 304)
(305 306)
(306 307)
(308 301)
(309 308)
(307 309)
(310 4)
(311 312)
(312 310)
(313 314)
(314 315)
(315 316)
(316 311)
(317 318)
(319 320)
(320 317)
(321 322)
(322 319)
(323 324)
(324 325)
(325 326)
(326 321)
(327 328)
(328 329)
(330 331)
(331 327)
(332 333)
(5 332)
(333 330)
(334 335)
(336 337)
(335 338)
(338 336)
(339 323)
(337 340)
(341 339)
(340 341)
(329 334)
(318 342)
(342 343)
(344 345)
(346 344)
(343 346)
(347 348)
(348 313)
(345 347)
(6 349)
(349 350)
(351 352)
(352 353)
(354 351)
(350 354)
(355 356)
(356 357)
(357 358)
(359 360)
(360 361)
(358 362)
(362 359)
(363 355)
(364 365)
(365 366)
(366 367)
(368 7)
(367 369)
(369 370)
(370 368)
(371 364)
(372 371)
(373 372)
(374 373)
(361 375)
(375 376)
(376 377)
(378 374)
(379 378)
(377 379)
(380 381)
(381 382)
(382 383)
(383 384)
(24 380)
(385 386)
(386 387)
(387 388)
(388 25)
(384 385)
(389 363)
(390 391)
(391 392)
(392 389)
(353 393)
(393 394)
(395 390)
(396 395)
(394 396)
(27 397)
(398 27)
(399 398)
(400 399)
(401 400)
(402 403)
(25 402)
(404 401)
(403 404)
(26 405)
(406 407)
(405 406)
(408 24)
(409 408)
(410 409)
(411 410)
(407 411)
(412 26)
(413 412)
(414 413)
(415 414)
(416 417)
(418 416)
(419 418)
(397 419)
(417 415)
(420 35)
(421 422)
(422 423)
(29 424)
(424 425)
(426 421)
(425 426)
(423 420)
(427 428)
(429 34)
(428 429)
(28 430)
(430 431)
(432 427)
(433 432)
(431 433)
(434 39)
(435 436)
(436 437)
(30 438)
(438 439)
(440 435)
(439 440)
(437 434)
(441 442)
(443 36)
(442 443)
(31 444)
(444 445)
(446 441)
(447 446)
(445 447)
(448 38)
(449 450)
(450 451)
(33 452)
(452 453)
(454 449)
(453 454)
(451 448)
(455 456)
(457 37)
(456 457)
(32 458)
(458 459)
(460 455)
(461 460)
(459 461)
(26 462)
(463 464)
(464 24)
(465 466)
(467 465)
(468 469)
(469 8)
(470 471)
(472 470)
(8 472)
(473 468)
(466 473)
(474 475)
(476 477)
(477 474)
(478 479)
(479 480)
(9 481)
(482 9)
(480 482)
(481 483)
(483 476)
(471 478)
(484 463)
(475 484)
(485 486)
(462 485)
(486 467)
(10 487)
(488 10)
(489 12)
(490 489)
(11 491)
(487 11)
(492 493)
(494 492)
(14 495)
(496 14)
(497 498)
(499 500)
(500 501)
(495 499)
(498 502)
(502 503)
(13 496)
(503 13)
(15 494)
(12 504)
(504 15)
(505 506)
(28 507)
(508 28)
(509 510)
(510 511)
(512 25)
(513 512)
(511 513)
(507 29)
(29 505)
(501 509)
(506 514)
(514 497)
(515 508)
(493 516)
(517 515)
(516 517)
(518 30)
(31 518)
(519 31)
(520 521)
(522 520)
(32 523)
(521 32)
(33 524)
(523 33)
(491 525)
(526 527)
(528 526)
(9 529)
(529 16)
(16 530)
(530 528)
(531 488)
(532 533)
(533 531)
(527 522)
(534 532)
(524 535)
(535 534)
(536 490)
(537 536)
(538 537)
(539 540)
(525 539)
(541 542)
(543 544)
(30 543)
(542 519)
(544 538)
(540 541)
(545 546)
(546 27)
(547 548)
(549 547)
(14 549)
(550 551)
(552 553)
(553 550)
(554 555)
(555 556)
(17 557)
(558 17)
(556 558)
(557 559)
(559 552)
(548 554)
(560 545)
(551 560)
(561 8)
(34 562)
(35 563)
(563 34)
(564 565)
(565 35)
(566 567)
(18 568)
(569 18)
(567 19)
(19 570)
(570 20)
(571 572)
(573 574)
(575 571)
(17 576)
(21 577)
(577 578)
(578 573)
(576 21)
(22 569)
(572 22)
(574 579)
(579 564)
(580 575)
(562 581)
(582 580)
(568 583)
(581 582)
(584 566)
(23 561)
(585 586)
(586 23)
(587 588)
(589 587)
(588 585)
(590 591)
(20 592)
(592 590)
(593 36)
(594 595)
(37 594)
(596 597)
(38 598)
(597 38)
(598 37)
(595 589)
(599 596)
(591 600)
(600 599)
(39 593)
(601 39)
(602 601)
(603 602)
(604 605)
(36 604)
(606 607)
(608 609)
(583 608)
(607 584)
(609 603)
(605 606)
(610 611)
(612 610)
(23 612)
(613 16)
(614 613)
(615 616)
(611 615)
(616 614)
(617 618)
(618 21)
(13 619)
(619 620)
(620 621)
(622 623)
(623 617)
(621 622)
(624 22)
(625 626)
(626 627)
(15 628)
(628 629)
(630 625)
(629 630)
(627 624)
(631 632)
(632 18)
(12 633)
(633 634)
(634 635)
(636 637)
(637 631)
(635 636)
(638 19)
(639 640)
(640 641)
(11 642)
(642 643)
(644 639)
(643 644)
(641 638)
(645 646)
(646 20)
(10 647)
(647 648)
(648 649)
(650 651)
(651 645)
(649 650)
)

// concaveStart mixedStart nonFeatureStart
8 24 40
// internalStart flatStart openStart multipleStart
444 672 672 672
// normals

1344
(
(-1 0 0)
(0 1 0)
(-1 0 -0)
(0 1 0)
(-1 0 0)
(0 1 0)
(-1 -0 0)
(0 1 0)
(-1 0 0)
(0 1 0)
(-1 0 0)
(0 1 0)
(-1 0 -0)
(0 1 0)
(-1 0 0)
(0 1 0)
(-1 0 -0)
(0 1 0)
(-1 0 0)
(0 1 0)
(-1 0 0)
(0 1 0)
(-1 0 0)
(0 1 0)
(-1 0 0)
(0 1 0)
(-1 0 -0)
(0 1 0)
(-1 0 0)
(0 1 0)
(-1 0 0)
(0 1 0)
(-1 0 0)
(0 1 0)
(-1 0 0)
(0 1 0)
(-1 0 0)
(0 1 0)
(-1 0 0)
(0 1 0)
(-1 0 0)
(0 -1 0)
(-1 -0 0)
(0 -1 0)
(-1 0 0)
(0 -1 0)
(-1 -0 0)
(0 -1 0)
(-1 0 0)
(0 -1 0)
(-1 -0 0)
(0 -1 0)
(-1 -0 0)
(0 -1 0)
(-1 0 0)
(-0 -1 0)
(-1 0 0)
(0 -1 0)
(-1 0 0)
(0 -1 0)
(-1 0 0)
(0 -1 0)
(-1 0 0)
(-0 -1 0)
(-1 -0 0)
(0 -1 0)
(-1 0 0)
(0 -1 0)
(-1 -0 0)
(0 -1 0)
(-1 0 0)
(0 -1 0)
(-1 0 0)
(-0 -1 0)
(-1 0 0)
(0 -1 0)
(-1 0 0)
(0 -1 0)
(-1 -0 0)
(-0 -1 0)
(0 -0 1)
(0 1 0)
(0 -0 1)
(0 1 0)
(0 -0 1)
(0 1 -0)
(0 0 1)
(0 1 0)
(0 0 1)
(0 1 0)
(0 0 1)
(0 1 0)
(0 0 1)
(0 1 0)
(0 0 1)
(0 1 0)
(0 -0 1)
(0 1 0)
(0 -0 1)
(0 1 0)
(0 0 1)
(0 1 0)
(0 0 1)
(0 1 0)
(0 -0 1)
(0 1 0)
(0 -0 1)
(0 1 0)
(0 0 1)
(0 1 0)
(0 0 1)
(0 1 0)
(0 0 1)
(0 1 0)
(0 -0 1)
(0 1 0)
(0 0 1)
(-0 1 0)
(0 0 1)
(0 1 0)
(0 0 1)
(0 1 0)
(0 -0 1)
(0 1 0)
(0 0 1)
(0 1 0)
(0 0 1)
(0 1 0)
(0 0 1)
(0 1 0)
(0 0 1)
(0 1 -0)
(0 -0 1)
(0 1 0)
(0 0 1)
(0 1 0)
(0 0 1)
(0 1 0)
(0 -0 1)
(0 1 0)
(0 0 1)
(-0 -1 0)
(0 0 1)
(-0 -1 0)
(0 0 1)
(-0 -1 0)
(0 0 1)
(-0 -1 0)
(0 0 1)
(-0 -1 0)
(0 0 1)
(-0 -1 0)
(0 0 1)
(-0 -1 0)
(0 0 1)
(-0 -1 0)
(0 0 1)
(-0 -1 0)
(0 0 1)
(0 -1 0)
(0 0 1)
(-0 -1 0)
(0 0 1)
(0 -1 0)
(0 0 1)
(-0 -1 0)
(0 0 1)
(-0 -1 0)
(0 0 1)
(-0 -1 0)
(0 0 1)
(-0 -1 0)
(0 0 1)
(-0 -1 0)
(0 0 1)
(-0 -1 0)
(0 0 1)
(-0 -1 0)
(0 0 1)
(-0 -1 0)
(0 0 1)
(0 -1 0)
(0 -0 1)
(-0 -1 0)
(0 0 1)
(-0 -1 0)
(0 0 1)
(-0 -1 0)
(0 0 1)
(-0 -1 0)
(0 0 1)
(-0 -1 0)
(0 0 1)
(-0 -1 0)
(0 0 1)
(-0 -1 0)
(0 0 1)
(-0 -1 0)
(0 0 1)
(-0 -1 0)
(-5.6843419e-15 2.5257768e-14 -1)
(-0 1 0)
(0 4.995877e-14 -1)
(0 1 0)
(0 4.995877e-14 -1)
(0 1 0)
(0 4.995877e-14 -1)
(0 1 0)
(0 4.995877e-14 -1)
(0 1 0)
(0 4.995877e-14 -1)
(0 1 0)
(0 4.995877e-14 -1)
(0 1 0)
(0 4.995877e-14 -1)
(0 1 0)
(0 4.995877e-14 -1)
(0 1 0)
(0 4.995877e-14 -1)
(0 1 0)
(0 4.995877e-14 -1)
(0 1 0)
(0 4.995877e-14 -1)
(0 1 0)
(0 4.995877e-14 -1)
(0 1 0)
(5.6843419e-15 2.5257768e-14 -1)
(0 1 0)
(0 4.995877e-14 -1)
(0 1 0)
(0 4.995877e-14 -1)
(0 1 0)
(0 4.995877e-14 -1)
(0 1 0)
(0 4.995877e-14 -1)
(0 1 0)
(0 4.995877e-14 -1)
(0 1 0)
(0 4.995877e-14 -1)
(0 1 0)
(0 4.995877e-14 -1)
(0 1 0)
(0 4.995877e-14 -1)
(0 1 0)
(0 4.995877e-14 -1)
(0 1 0)
(0 4.995877e-14 -1)
(0 1 0)
(0 4.995877e-14 -1)
(0 1 0)
(0 4.995877e-14 -1)
(0 1 0)
(0 4.995877e-14 -1)
(0 1 0)
(0 4.995877e-14 -1)
(0 1 0)
(0 4.995877e-14 -1)
(0 1 0)
(0 4.995877e-14 -1)
(0 1 0)
(5.6843419e-15 1.1635203e-13 -1)
(0 -1 0)
(0 1.3618274e-13 -1)
(0 -1 0)
(0 1.3618274e-13 -1)
(0 -1 0)
(0 1.3618274e-13 -1)
(0 -1 0)
(0 1.3618274e-13 -1)
(0 -1 0)
(0 1.3618274e-13 -1)
(0 -1 -0)
(0 1.3618274e-13 -1)
(0 -1 0)
(0 1.3618274e-13 -1)
(0 -1 0)
(0 1.3618274e-13 -1)
(0 -1 0)
(0 1.3618274e-13 -1)
(0 -1 0)
(0 1.3618274e-13 -1)
(0 -1 0)
(0 8.5349574e-15 -1)
(0 -1 0)
(0 1.3618274e-13 -1)
(0 -1 0)
(0 1.3618274e-13 -1)
(0 -1 0)
(0 1.3618274e-13 -1)
(0 -1 0)
(0 1.3618274e-13 -1)
(0 -1 0)
(0 1.3618274e-13 -1)
(0 -1 0)
(0 8.5349574e-15 -1)
(0 -1 0)
(0 1.3618274e-13 -1)
(0 -1 0)
(0 1.3618274e-13 -1)
(0 -1 0)
(0 1.3618274e-13 -1)
(0 -1 0)
(0 1.3618274e-13 -1)
(0 -1 0)
(0 1.3618274e-13 -1)
(0 -1 -0)
(0 1.3618274e-13 -1)
(0 -1 0)
(0 1.3618274e-13 -1)
(0 -1 0)
(0 1.3618274e-13 -1)
(0 -1 0)
(0 1.3618274e-13 -1)
(0 -1 0)
(-5.6843419e-15 1.1635203e-13 -1)
(0 -1 0)
(0 1.3618274e-13 -1)
(0 -1 0)
(0 1.3618274e-13 -1)
(0 -1 0)
(1 -0 0)
(0 1 -0)
(1 0 -0)
(0 1 -0)
(1 -0 0)
(-0 1 0)
(1 0 0)
(0 1 -0)
(1 -0 0)
(-0 1 0)
(1 -0 0)
(0 1 -0)
(1 0 -0)
(0 1 -0)
(1 -0 0)
(0 1 -0)
(1 0 -0)
(0 1 0)
(1 -0 0)
(0 1 -0)
(1 -0 0)
(0 1 -0)
(1 -0 0)
(0 1 0)
(1 -0 0)
(0 1 -0)
(1 0 -0)
(-0 1 0)
(1 0 0)
(0 1 -0)
(1 -0 0)
(0 1 -0)
(1 -0 0)
(0 1 -0)
(1 -0 0)
(0 1 -0)
(1 -0 0)
(0 1 -0)
(1 -0 0)
(0 1 -0)
(1 0 0)
(0 -1 0)
(1 0 0)
(0 -1 0)
(1 0 0)
(0 -1 0)
(1 0 0)
(0 -1 0)
(1 0 0)
(0 -1 -0)
(1 0 0)
(0 -1 0)
(1 0 0)
(0 -1 0)
(1 0 0)
(0 -1 0)
(1 0 0)
(0 -1 0)
(1 0 0)
(0 -1 0)
(1 0 0)
(0 -1 0)
(1 0 0)
(0 -1 -0)
(1 0 0)
(0 -1 0)
(1 0 0)
(0 -1 0)
(1 0 0)
(0 -1 0)
(1 0 0)
(0 -1 0)
(1 0 0)
(0 -1 0)
(1 0 0)
(0 -1 0)
(1 0 0)
(0 -1 0)
(1 0 0)
(0 -1 0)
(-1 0 0)
(-1.4654805e-21 -2.1999987e-16 -1)
(-1 0 0)
(-9.5795577e-23 -2.2000021e-16 -1)
(-1 0 -0)
(-2.8758407e-14 4.2200001e-15 -1)
(-1 0 -0)
(-6.3806496e-23 -2.2000004e-16 -1)
(-1 0 -0)
(-7.5635073e-22 -2.2000004e-16 -1)
(-1 0 -0)
(1.3488323e-21 -2.2000004e-16 -1)
(-1 0 0)
(-1.4539717e-22 -2.1999987e-16 -1)
(-1 0 0)
(2.0331393e-22 -2.2000021e-16 -1)
(-1 0 0)
(7.4297603e-22 -2.1999987e-16 -1)
(-1 0 -0)
(-1.5418714e-21 -2.2000021e-16 -1)
(-1 0 -0)
(-7.1101922e-24 -2.1999987e-16 -1)
(-1 0 0)
(0 0 1)
(-1 0 0)
(0 0 1)
(-1 0 0)
(0 0 1)
(-1 0 0)
(0 0 1)
(-1 0 0)
(0 0 1)
(-1 0 0)
(0 0 1)
(-1 0 0)
(0 0 1)
(-1 0 0)
(0 0 1)
(-1 0 0)
(0 0 1)
(-1 0 0)
(0 0 1)
(-1 0 -0)
(9.992855e-23 -2.1999995e-16 -1)
(-1 0 -0)
(3.0913305e-22 -2.2000004e-16 -1)
(-1 0 0)
(-1.1024129e-21 -2.2000004e-16 -1)
(-1 0 -0)
(-1.6486149e-23 -2.2000004e-16 -1)
(-1 0 0)
(1.7303107e-22 -2.2000004e-16 -1)
(-1 0 0)
(9.032553e-23 -2.2000004e-16 -1)
(-1 0 -0)
(-1.0863995e-22 -2.1999987e-16 -1)
(-1 0 -0)
(5.4352257e-15 4.1399999e-15 -1)
(-1 0 -0)
(5.4077714e-22 -2.1999987e-16 -1)
(-1 0 0)
(-7.9589626e-24 -2.1999987e-16 -1)
(-1 0 0)
(7.7526836e-23 -2.1999987e-16 -1)
(-1 0 0)
(6.2463515e-23 -2.2000021e-16 -1)
(-1 0 -0)
(1.0562375e-21 -2.1999987e-16 -1)
(-1 0 -0)
(3.0806195e-24 -2.2000021e-16 -1)
(-1 0 -0)
(1.0467358e-22 -2.2000004e-16 -1)
(-1 0 0)
(2.8787568e-22 -2.1999995e-16 -1)
(-1 0 0)
(0 0 1)
(-1 0 0)
(0 0 1)
(-1 0 0)
(0 0 1)
(-1 0 0)
(0 0 1)
(-1 0 0)
(0 0 1)
(-1 0 0)
(0 0 1)
(-1 0 0)
(0 0 1)
(-1 0 0)
(0 0 1)
(-1 0 0)
(0 0 1)
(-1 0 0)
(0 0 1)
(-1 0 0)
(0 0 1)
(-1 0 0)
(0 0 1)
(-1 0 0)
(0 0 1)
(-1 0 0)
(0 0 1)
(-1 0 0)
(0 0 1)
(-1 0 0)
(0 0 1)
(-1 0 0)
(0 0 1)
(-1 0 0)
(0 0 1)
(-1 0 0)
(0 0 1)
(-1 0 0)
(0 0 1)
(-1 0 0)
(0 0 1)
(-1 0 0)
(0 0 1)
(-1 0 0)
(0 0 1)
(-1 0 0)
(0 0 1)
(-1 0 0)
(0 0 1)
(-1 0 0)
(0 0 1)
(-1 0 0)
(0 0 1)
(-1 0 0)
(0 0 1)
(-1 0 0)
(0 0 1)
(-1 0 0)
(0 0 1)
(-1 0 -0)
(3.5239081e-22 -2.2000004e-16 -1)
(-1 0 0)
(-2.6413114e-24 -2.2000001e-16 -1)
(-1 0 0)
(3.3359735e-23 -2.2000002e-16 -1)
(-1 0 0)
(-9.7339973e-24 -2.2e-16 -1)
(-1 0 -0)
(1.1513348e-22 -2.1999999e-16 -1)
(-1 0 -0)
(-8.7924601e-24 -2.1999999e-16 -1)
(-1 0 -0)
(4.3005183e-23 -2.2000004e-16 -1)
(-1 0 0)
(-8.4138019e-22 -2.1999987e-16 -1)
(-1 0 -0)
(-1.1230009e-22 -2.2000004e-16 -1)
(-1 0 -0)
(3.4781589e-23 -2.2000004e-16 -1)
(-1 0 0)
(2.754168e-22 -2.1999999e-16 -1)
(-1 0 0)
(4.50663e-23 -2.1999999e-16 -1)
(-1 0 -0)
(4.3748582e-24 -2.1999995e-16 -1)
(0 -0 1)
(1 0 -0)
(0 -0 1)
(1 0 0)
(-0 0 1)
(1 0 0)
(0 -0 1)
(1 0 -0)
(-0 0 1)
(1 0 0)
(0 -0 1)
(1 0 0)
(-0 0 1)
(1 0 0)
(0 -0 1)
(1 0 -0)
(0 -0 1)
(1 0 0)
(-0 0 1)
(1 0 0)
(0 -0 1)
(1 0 0)
(-0 0 1)
(1 0 0)
(0 -0 1)
(1 0 -0)
(-0 0 1)
(1 0 -0)
(0 -0 1)
(1 0 -0)
(-0 0 1)
(1 0 0)
(0 -0 1)
(1 0 0)
(-0 0 1)
(1 0 0)
(0 -0 1)
(1 0 -0)
(-0 0 1)
(1 0 0)
(-0 0 1)
(1 0 -0)
(0 -0 1)
(1 0 -0)
(-0 0 1)
(1 0 -0)
(-0 0 1)
(1 0 0)
(-0 0 1)
(1 -0 0)
(0 -0 1)
(1 0 -0)
(-0 0 1)
(1 0 -0)
(0 -0 1)
(1 0 -0)
(0 0 1)
(1 0 -0)
(-0 0 1)
(1 0 -0)
(0 0 1)
(1 0 0)
(0 -0 1)
(1 0 0)
(-0 0 1)
(1 0 -0)
(-0 0 1)
(1 0 -0)
(-0 0 1)
(1 0 -0)
(0 0 1)
(1 0 0)
(0 0 1)
(1 0 -0)
(0 -0 1)
(1 0 -0)
(-0 0 1)
(1 0 -0)
(-0 0 1)
(1 0 -0)
(2.8758407e-14 4.2200001e-15 -1)
(1 0 0)
(9.5795577e-23 -2.2000021e-16 -1)
(1 -0 0)
(-7.4297603e-22 -2.1999987e-16 -1)
(1 -0 0)
(1.4539717e-22 -2.1999987e-16 -1)
(1 -0 0)
(-2.0331393e-22 -2.2000021e-16 -1)
(1 -0 0)
(1.4654805e-21 -2.1999987e-16 -1)
(1 -0 0)
(-4.50663e-23 -2.1999999e-16 -1)
(1 -0 0)
(-2.754168e-22 -2.1999999e-16 -1)
(1 -0 0)
(-3.3359735e-23 -2.2000002e-16 -1)
(1 -0 0)
(-1.1513348e-22 -2.1999999e-16 -1)
(1 0 0)
(8.7924601e-24 -2.1999999e-16 -1)
(1 0 0)
(9.7339973e-24 -2.2e-16 -1)
(1 -0 0)
(2.6413114e-24 -2.2000001e-16 -1)
(1 -0 0)
(-4.3748582e-24 -2.1999995e-16 -1)
(1 0 0)
(-7.7526836e-23 -2.1999987e-16 -1)
(1 -0 0)
(-6.2463515e-23 -2.2000021e-16 -1)
(1 -0 0)
(7.9589626e-24 -2.1999987e-16 -1)
(1 -0 0)
(-5.4352257e-15 4.1399999e-15 -1)
(1 0 0)
(-1.0562375e-21 -2.1999987e-16 -1)
(1 0 0)
(-3.0806195e-24 -2.2000021e-16 -1)
(1 0 0)
(-5.4077714e-22 -2.1999987e-16 -1)
(1 0 0)
(-1.7303107e-22 -2.2000004e-16 -1)
(1 -0 0)
(-9.032553e-23 -2.2000004e-16 -1)
(1 -0 0)
(1.0863995e-22 -2.1999987e-16 -1)
(1 0 0)
(1.6486149e-23 -2.2000004e-16 -1)
(1 0 0)
(-3.5239081e-22 -2.2000004e-16 -1)
(1 0 0)
(-9.992855e-23 -2.1999995e-16 -1)
(1 0 0)
(-3.0913305e-22 -2.2000004e-16 -1)
(1 0 0)
(1.1024129e-21 -2.2000004e-16 -1)
(1 -0 0)
(-1.0467358e-22 -2.2000004e-16 -1)
(1 0 0)
(-2.8787568e-22 -2.1999995e-16 -1)
(1 0 0)
(0 -1.6619551e-16 -1)
(0 1 0)
(0 -1.6619551e-16 -1)
(0 1 0)
(0 -1.6619551e-16 -1)
(0 1 0)
(0 -1.6619551e-16 -1)
(0 1 0)
(0 -1.6619551e-16 -1)
(0 1 0)
(0 -1.6619551e-16 -1)
(0 1 0)
(-0 -1.6619551e-16 -1)
(0 1 0)
(0 -1.6619551e-16 -1)
(0 1 0)
(0 -1.6619551e-16 -1)
(0 1 0)
(0 -1.6619551e-16 -1)
(0 1 0)
(-3.4781589e-23 -2.2000004e-16 -1)
(1 0 0)
(8.4138019e-22 -2.1999987e-16 -1)
(1 0 0)
(-4.3005183e-23 -2.2000004e-16 -1)
(1 0 0)
(1.1230009e-22 -2.2000004e-16 -1)
(1 0 0)
(1.5418714e-21 -2.2000021e-16 -1)
(1 0 0)
(7.1101922e-24 -2.1999987e-16 -1)
(1 0 0)
(7.5635073e-22 -2.2000004e-16 -1)
(1 0 0)
(6.3806496e-23 -2.2000004e-16 -1)
(1 0 0)
(-1.3488323e-21 -2.2000004e-16 -1)
(1 0 0)
(0 -2.614718e-16 -1)
(0 -1 0)
(-5.6062037e-17 -2.220446e-16 -1)
(-1 0 0)
(-2.8901718e-17 -2.220446e-16 -1)
(-1 0 0)
(-6.3647476e-17 -2.220446e-16 -1)
(-1 0 -0)
(-3.2564464e-17 -2.220446e-16 -1)
(-1 0 -0)
(-7.8818356e-17 -2.220446e-16 -1)
(-1 0 0)
(-3.9889859e-17 -2.220446e-16 -1)
(-1 0 -0)
(-7.1232916e-17 -2.220446e-16 -1)
(-1 0 0)
(-3.6227175e-17 -2.220446e-16 -1)
(-1 0 0)
(5.6062037e-17 -2.220446e-16 -1)
(1 0 0)
(6.3647476e-17 -2.220446e-16 -1)
(1 0 0)
(2.8901718e-17 -2.220446e-16 -1)
(1 -0 0)
(3.9889859e-17 -2.220446e-16 -1)
(1 0 0)
(7.8818356e-17 -2.220446e-16 -1)
(1 -0 0)
(3.6227175e-17 -2.220446e-16 -1)
(1 0 0)
(7.1232916e-17 -2.220446e-16 -1)
(1 0 0)
(3.2564464e-17 -2.220446e-16 -1)
(1 0 0)
(0 -2.614718e-16 -1)
(0 -1 -0)
(0 -2.614718e-16 -1)
(0 -1 0)
(0 -2.614718e-16 -1)
(0 -1 0)
(0 -2.614718e-16 -1)
(0 -1 0)
(0 -2.614718e-16 -1)
(0 -1 0)
(0 -2.614718e-16 -1)
(0 -1 0)
(0 -2.614718e-16 -1)
(0 -1 0)
(0 -2.614718e-16 -1)
(0 -1 -0)
(0 -2.614718e-16 -1)
(0 -1 -0)
(1 0 0)
(0 -0 -1)
(1 0 0)
(0 0 -1)
(1 0 0)
(0 0 -1)
(1 0 0)
(0 0 -1)
(1 0 0)
(0 0 -1)
(1 0 0)
(0 0 -1)
(1 0 0)
(0 0 -1)
(1 0 0)
(0 0 -1)
(0 0 -1)
(-1 0 0)
(-0 0 -1)
(-1 0 -0)
(0 0 -1)
(-1 0 -0)
(-0 0 -1)
(-1 0 0)
(0 0 -1)
(-1 0 -0)
(0 0 -1)
(-1 0 -0)
(0 0 -1)
(-1 0 0)
(0 0 -1)
(-1 0 -0)
(1 0 0)
(0 -0 -1)
(1 0 0)
(0 0 -1)
(1 0 0)
(0 0 -1)
(1 0 0)
(0 0 -1)
(1 0 0)
(0 0 -1)
(1 0 0)
(0 0 -1)
(1 0 0)
(0 0 -1)
(1 0 0)
(0 0 -1)
(0 0 -1)
(-1 0 0)
(-0 0 -1)
(-1 0 -0)
(0 0 -1)
(-1 0 -0)
(-0 0 -1)
(-1 0 0)
(0 0 -1)
(-1 0 -0)
(0 0 -1)
(-1 0 -0)
(0 0 -1)
(-1 0 0)
(0 0 -1)
(-1 0 -0)
(1 0 0)
(0 -0 -1)
(1 0 0)
(0 0 -1)
(1 0 0)
(0 0 -1)
(1 0 0)
(0 0 -1)
(1 0 0)
(0 0 -1)
(1 0 0)
(0 0 -1)
(1 0 0)
(0 0 -1)
(1 0 0)
(0 0 -1)
(0 0 -1)
(-1 0 0)
(-0 0 -1)
(-1 0 -0)
(0 0 -1)
(-1 0 -0)
(-0 0 -1)
(-1 0 0)
(0 0 -1)
(-1 0 -0)
(0 0 -1)
(-1 0 -0)
(0 0 -1)
(-1 0 0)
(0 0 -1)
(-1 0 -0)
(1 0 -0)
(0 -1 0)
(1 0 0)
(0 1 0)
(1 0 0)
(0 1 0)
(1 0 -0)
(0 -1 0)
(1 0 -0)
(0 -1 0)
(1 0 -0)
(-0 -1 0)
(1 0 0)
(0 -1 0)
(1 0 0)
(0 0 -1)
(1 0 -0)
(0 0 -1)
(1 0 0)
(0 0 -1)
(1 -0 0)
(0 -1 0)
(1 0 -0)
(0 -1 0)
(1 0 0)
(0 1 0)
(1 0 0)
(0 1 0)
(1 0 0)
(0 1 0)
(1 0 0)
(0 0 -1)
(1 0 0)
(0 0 -1)
(1 0 0)
(0 1 0)
(1 0 0)
(0 0 -1)
(1 -0 0)
(0 0 -1)
(1 0 0)
(0 1 0)
(1 0 0)
(0 1 0)
(1 0 0)
(0 0 -1)
(1 0 0)
(0 1 0)
(1 0 0)
(0 1 0)
(1 0 -0)
(0 -1 0)
(1 0 -0)
(0 -1 0)
(1 0 0)
(0 -1 0)
(0 1 -0)
(0 0 -1)
(0 1 0)
(1 0 0)
(0 1 0)
(1 0 0)
(0 1 0)
(1 0 0)
(0 1 0)
(-1 0 0)
(-0 1 0)
(0 0 -1)
(0 1 0)
(-1 -0 0)
(0 1 -0)
(-1 0 0)
(0 1 0)
(-1 0 0)
(-0 1 0)
(0 0 -1)
(0 1 0)
(1 0 0)
(0 1 0)
(-1 -0 0)
(0 1 0)
(-1 0 0)
(-0 1 0)
(-1 0 0)
(0 1 0)
(1 0 0)
(0 1 0)
(1 0 0)
(-0 1 0)
(0 0 -1)
(0 1 0)
(1 0 0)
(0 1 0)
(-1 0 0)
(-0 1 0)
(0 0 -1)
(0 1 -0)
(0 0 -1)
(0 1 0)
(1 0 0)
(0 1 -0)
(0 -0 -1)
(0 1 0)
(-1 0 0)
(0 1 0)
(-1 0 0)
(0 1 0)
(-1 0 0)
(0 1 0)
(-1 0 0)
(0 1 -0)
(-1 0 0)
(0 1 -0)
(-1 0 0)
(-0 1 0)
(0 0 -1)
(0 1 0)
(1 0 0)
(0 1 0)
(-1 0 0)
(0 1 0)
(1 0 0)
(0 1 0)
(1 0 0)
(0 1 0)
(-1 0 0)
(0 1 0)
(-1 0 0)
(0 1 0)
(-1 0 0)
(0 1 0)
(-1 0 0)
(0 1 0)
(0 0 -1)
(0 1 -0)
(0 -0 -1)
(0 1 0)
(-1 0 0)
(-0 1 0)
(-1 0 0)
(0 1 -0)
(-1 0 0)
(0 1 -0)
(0 -0 -1)
(-0 1 0)
(-1 0 0)
(0 1 0)
(1 0 0)
(0 1 -0)
(0 0 -1)
(0 1 -0)
(-1 0 0)
(0 1 -0)
(-1 0 0)
(0 1 -0)
(-1 -0 0)
(-0 1 0)
(0 0 -1)
(-0 1 0)
(0 0 -1)
(-0 1 0)
(-1 0 0)
(0 1 0)
(-1 0 0)
(0 1 0)
(1 0 0)
(0 1 0)