/*--------------------------------*- C++ -*----------------------------------*\
| =========                 |                                                 |
| \\      /  F ield         | OpenFOAM: The Open Source CFD Toolbox           |
|  \\    /   O peration     | Version:  2212                                  |
|   \\  /    A nd           | Website:  www.openfoam.com                      |
|    \\/     M anipulation  |                                                 |
\*---------------------------------------------------------------------------*/
FoamFile
{
    version     2.0;
    format      ascii;
    arch        "LSB;label=32;scalar=64";
    class       extendedFeatureEdgeMesh;
    location    "constant/extendedFeatureEdgeMesh";
    object      heatSink.extendedFeatureEdgeMesh;
}
// * * * * * * * * * * * * * * * * * * * * * * * * * * * * * * * * * * * * * //

// points

296
(
(25 20 -4.4408921e-15)
(25 -20 4.4408921e-15)
(-25 20 -4.4408921e-15)
(-25 -20 4.4408921e-15)
(11 20 50)
(11 -20 50)
(3 20 50)
(3 -20 50)
(-17 20 50)
(-25 20 50)
(-25 -20 50)
(-17 -20 50)
(-11 20 50)
(-11 -20 50)
(-3 20 50)
(-3 -20 50)
(17 20 50)
(17 -20 50)
(25 20 50)
(25 -20 50)
(17 20 10)
(11 20 10)
(11 -20 10)
(17 -20 10)
(-17 20 10)
(-17 -20 10)
(-11 20 10)
(-11 -20 10)
(-3 20 10)
(-3 -20 10)
(3 20 10)
(3 -20 10)
(25 15 -3.3306691e-15)
(20 20 -4.4408921e-15)
(25 10 -2.220446e-15)
(25 5 -1.110223e-15)
(25 0 0)
(25 -5 1.110223e-15)
(25 -10 2.220446e-15)
(25 -15 3.3306691e-15)
(20 -20 4.4408921e-15)
(15 -20 4.4408921e-15)
(-5 20 -4.4408921e-15)
(0 20 -4.4408921e-15)
(5 20 -4.4408921e-15)
(-20 20 -4.4408921e-15)
(-15 20 -4.4408921e-15)
(-25 5 -1.110223e-15)
(-25 10 -2.220446e-15)
(-25 15 -3.3306691e-15)
(-10 20 -4.4408921e-15)
(5 -20 4.4408921e-15)
(0 -20 4.4408921e-15)
(-5 -20 4.4408921e-15)
(-10 -20 4.4408921e-15)
(-25 -5 1.110223e-15)
(-25 0 0)
(-25 -10 2.220446e-15)
(-20 -20 4.4408921e-15)
(-25 -15 3.3306691e-15)
(-15 -20 4.4408921e-15)
(10 -20 4.4408921e-15)
(10 20 -4.4408921e-15)
(15 20 -4.4408921e-15)
(14 20 10)
(14 -20 10)
(11 15 50)
(11 20 45)
(11 20 35)
(11 20 40)
(11 20 20)
(11 20 25)
(11 20 30)
(11 20 15)
(11 5 50)
(11 1.0658141e-14 50)
(11 10 50)
(11 -15 50)
(11 -20 45)
(11 -20 40)
(11 -20 35)
(11 -10 50)
(11 -5 50)
(11 -20 30)
(11 -20 25)
(11 -20 20)
(11 -20 15)
(3 15 50)
(3 10 50)
(7 20 50)
(3 -15 50)
(7 -20 50)
(3 -10 50)
(3 -5 50)
(3 5 50)
(3 1.0658141e-14 50)
(-25 15 50)
(-25 10 50)
(-17 5 50)
(-17 10 50)
(-17 15 50)
(-21 20 50)
(-25 -15 50)
(-21 -20 50)
(-17 -15 50)
(-17 -10 50)
(-25 -10 50)
(-25 -5 50)
(-17 -5 50)
(-17 1.0658141e-14 50)
(-25 5 50)
(-25 1.0658141e-14 50)
(-17 20 45)
(-17 20 35)
(-17 20 40)
(-17 20 20)
(-17 20 25)
(-17 20 30)
(-17 20 15)
(-17 -20 45)
(-17 -20 40)
(-17 -20 35)
(-17 -20 30)
(-17 -20 25)
(-17 -20 20)
(-17 -20 15)
(-25 20 5)
(-25 -20 5)
(-25 -20 10)
(-25 20 30)
(-25 20 25)
(-25 20 20)
(-25 20 45)
(-25 20 40)
(-25 20 35)
(-25 -20 20)
(-25 -20 25)
(-25 -20 30)
(-25 -20 35)
(-25 -20 45)
(-25 -20 40)
(-25 -20 15)
(-25 20 15)
(-25 20 10)
(-14 20 10)
(-14 -20 10)
(-11 20 15)
(-11 20 25)
(-11 20 20)
(-11 20 40)
(-11 20 35)
(-11 20 30)
(-11 20 45)
(-11 -20 15)
(-11 -20 20)
(-11 -20 25)
(-11 -5 50)
(-11 1.0658141e-14 50)
(-11 5 50)
(-11 -20 30)
(-11 -20 35)
(-11 -20 40)
(-11 -15 50)
(-11 -20 45)
(-11 -10 50)
(-11 10 50)
(-11 15 50)
(-3 5 50)
(-3 10 50)
(-3 15 50)
(-7 20 50)
(-7 -20 50)
(-3 -15 50)
(-3 -10 50)
(-3 -5 50)
(-3 1.0658141e-14 50)
(-3 20 45)
(-3 20 35)
(-3 20 40)
(-3 20 20)
(-3 20 25)
(-3 20 30)
(-3 20 15)
(-3 -20 45)
(-3 -20 40)
(-3 -20 35)
(-3 -20 30)
(-3 -20 25)
(-3 -20 20)
(-3 -20 15)
(0 20 10)
(0 -20 10)
(3 20 15)
(3 20 25)
(3 20 20)
(3 20 40)
(3 20 35)
(3 20 30)
(3 20 45)
(3 -20 15)
(3 -20 20)
(3 -20 25)
(3 -20 30)
(3 -20 35)
(3 -20 40)
(3 -20 45)
(17 20 15)
(17 20 25)
(17 20 20)
(17 20 40)
(17 20 35)
(17 20 30)
(17 20 45)
(17 -20 15)
(17 -20 20)
(17 -20 25)
(17 -5 50)
(17 1.0658141e-14 50)
(17 5 50)
(17 -20 30)
(17 -20 35)
(17 -20 40)
(17 -15 50)
(17 -20 45)
(17 -10 50)
(17 10 50)
(17 15 50)
(25 5 50)
(25 10 50)
(25 15 50)
(21 20 50)
(21 -20 50)
(25 -15 50)
(25 -10 50)
(25 -5 50)
(25 1.0658141e-14 50)
(25 20 5)
(25 20 15)
(25 20 10)
(25 20 20)
(25 20 30)
(25 20 25)
(25 20 35)
(25 20 45)
(25 20 40)
(25 -20 45)
(25 -20 35)
(25 -20 40)
(25 -20 30)
(25 -20 20)
(25 -20 25)
(25 -20 15)
(25 -20 5)
(25 -20 10)
(11 10 10)
(11 5 10)
(17 5 10)
(17 10 10)
(17 0 10)
(17 15 10)
(11 15 10)
(11 -15 10)
(17 -15 10)
(11 -10 10)
(17 -5 10)
(11 0 10)
(11 -5 10)
(17 -10 10)
(-17 -5 10)
(-17 0 10)
(-17 5 10)
(-17 -15 10)
(-17 -10 10)
(-17 10 10)
(-17 15 10)
(-11 5 10)
(-11 10 10)
(-11 0 10)
(-11 15 10)
(-11 -15 10)
(-11 -5 10)
(-11 -10 10)
(-3 -5 10)
(-3 0 10)
(-3 5 10)
(-3 -15 10)
(-3 -10 10)
(-3 10 10)
(-3 15 10)
(3 5 10)
(3 10 10)
(3 0 10)
(3 15 10)
(3 -15 10)
(3 -5 10)
(3 -10 10)
)

// edges

312
(
(0 32)
(33 0)
(34 35)
(35 36)
(32 34)
(37 38)
(38 39)
(39 1)
(40 41)
(1 40)
(36 37)
(42 43)
(43 44)
(45 46)
(2 45)
(47 48)
(48 49)
(49 2)
(46 50)
(50 42)
(51 52)
(53 54)
(52 53)
(55 56)
(57 55)
(58 3)
(3 59)
(59 57)
(60 58)
(54 60)
(56 47)
(41 61)
(61 51)
(62 63)
(63 33)
(44 62)
(20 64)
(64 21)
(22 65)
(65 23)
(4 66)
(67 4)
(68 69)
(69 67)
(70 71)
(71 72)
(73 70)
(21 73)
(72 68)
(74 75)
(76 74)
(77 5)
(5 78)
(78 79)
(79 80)
(81 77)
(75 82)
(82 81)
(83 84)
(84 85)
(86 22)
(85 86)
(80 83)
(66 76)
(87 88)
(4 89)
(6 87)
(89 6)
(90 7)
(91 5)
(7 91)
(92 90)
(93 92)
(94 95)
(88 94)
(95 93)
(96 97)
(98 99)
(99 100)
(100 8)
(8 101)
(9 96)
(101 9)
(102 10)
(103 11)
(10 103)
(11 104)
(104 105)
(106 102)
(107 106)
(108 109)
(109 98)
(110 111)
(97 110)
(111 107)
(105 108)
(112 8)
(113 114)
(114 112)
(115 116)
(116 117)
(118 115)
(24 118)
(117 113)
(11 119)
(119 120)
(120 121)
(122 123)
(123 124)
(125 25)
(124 125)
(121 122)
(126 2)
(127 128)
(3 127)
(129 130)
(130 131)
(132 133)
(9 132)
(133 134)
(134 129)
(135 136)
(137 138)
(136 137)
(139 10)
(140 139)
(138 140)
(128 141)
(141 135)
(142 143)
(143 126)
(131 142)
(26 144)
(144 24)
(25 145)
(145 27)
(146 26)
(147 148)
(148 146)
(149 150)
(150 151)
(152 149)
(12 152)
(151 147)
(27 153)
(153 154)
(154 155)
(156 157)
(157 158)
(159 160)
(160 161)
(13 162)
(163 13)
(161 163)
(162 164)
(164 156)
(155 159)
(165 166)
(158 165)
(166 12)
(167 168)
(168 169)
(169 14)
(14 170)
(170 12)
(171 15)
(13 171)
(15 172)
(172 173)
(174 175)
(175 167)
(173 174)
(176 14)
(177 178)
(178 176)
(179 180)
(180 181)
(182 179)
(28 182)
(181 177)
(15 183)
(183 184)
(184 185)
(186 187)
(187 188)
(189 29)
(188 189)
(185 186)
(30 190)
(190 28)
(29 191)
(191 31)
(192 30)
(193 194)
(194 192)
(195 196)
(196 197)
(198 195)
(6 198)
(197 193)
(31 199)
(199 200)
(200 201)
(202 203)
(203 204)
(205 7)
(204 205)
(201 202)
(206 20)
(207 208)
(208 206)
(209 210)
(210 211)
(212 209)
(16 212)
(211 207)
(23 213)
(213 214)
(214 215)
(216 217)
(217 218)
(219 220)
(220 221)
(17 222)
(223 17)
(221 223)
(222 224)
(224 216)
(215 219)
(225 226)
(218 225)
(226 16)
(227 228)
(228 229)
(229 18)
(18 230)
(230 16)
(231 19)
(17 231)
(19 232)
(232 233)
(234 235)
(235 227)
(233 234)
(236 0)
(237 238)
(239 237)
(238 236)
(240 241)
(242 240)
(18 243)
(243 244)
(244 242)
(241 239)
(245 19)
(246 247)
(248 246)
(247 245)
(249 250)
(251 249)
(1 252)
(252 253)
(253 251)
(250 248)
(254 255)
(256 257)
(258 256)
(259 20)
(21 260)
(260 254)
(257 259)
(261 22)
(23 262)
(263 261)
(264 258)
(255 265)
(265 266)
(266 263)
(267 264)
(262 267)
(268 269)
(269 270)
(271 272)
(25 271)
(272 268)
(273 274)
(270 273)
(274 24)
(275 276)
(277 275)
(278 26)
(276 278)
(27 279)
(280 277)
(281 280)
(279 281)
(282 283)
(283 284)
(285 286)
(29 285)
(286 282)
(287 288)
(284 287)
(288 28)
(289 290)
(291 289)
(292 30)
(290 292)
(31 293)
(294 291)
(295 294)
(293 295)
)

// concaveStart mixedStart nonFeatureStart
20 20 32
// internalStart flatStart openStart multipleStart
264 312 312 312
// normals

624
(
(0 -2.220446e-16 -1)
(1 -0 0)
(-0 -2.220446e-16 -1)
(0 1 0)
(0 -2.220446e-16 -1)
(1 0 0)
(0 -2.220446e-16 -1)
(1 0 0)
(0 -2.220446e-16 -1)
(1 0 0)
(0 -2.220446e-16 -1)
(1 -0 0)
(0 -2.220446e-16 -1)
(1 0 0)
(0 -2.220446e-16 -1)
(1 0 0)
(0 -2.220446e-16 -1)
(0 -1 0)
(0 -2.220446e-16 -1)
(0 -1 0)
(0 -2.220446e-16 -1)
(1 -0 0)
(-0 -2.220446e-16 -1)
(0 1 0)
(-0 -2.220446e-16 -1)
(0 1 0)
(-0 -2.220446e-16 -1)
(0 1 0)
(0 -2.220446e-16 -1)
(0 1 0)
(0 -2.220446e-16 -1)
(-1 0 0)
(0 -2.220446e-16 -1)
(-1 0 0)
(0 -2.220446e-16 -1)
(-1 0 -0)
(0 -2.220446e-16 -1)
(0 1 0)
(-0 -2.220446e-16 -1)
(0 1 0)
(0 -2.220446e-16 -1)
(0 -1 0)
(0 -2.220446e-16 -1)
(0 -1 0)
(0 -2.220446e-16 -1)
(0 -1 0)
(0 -2.220446e-16 -1)
(-1 0 -0)
(0 -2.220446e-16 -1)
(-1 0 -0)
(0 -2.220446e-16 -1)
(0 -1 0)
(0 -2.220446e-16 -1)
(-1 0 0)
(0 -2.220446e-16 -1)
(-1 0 0)
(0 -2.220446e-16 -1)
(0 -1 0)
(-0 -2.220446e-16 -1)
(0 -1 0)
(0 -2.220446e-16 -1)
(-1 0 0)
(0 -2.220446e-16 -1)
(0 -1 0)
(0 -2.220446e-16 -1)
(0 -1 0)
(-0 -2.220446e-16 -1)
(0 1 0)
(-0 -2.220446e-16 -1)
(0 1 0)
(0 -2.220446e-16 -1)
(0 1 0)
(0 0 1)
(0 1 0)
(0 -0 1)
(0 1 -0)
(0 0 1)
(0 -1 0)
(0 0 1)
(0 -1 0)
(1 0 -0)
(0 -0 1)
(1 -0 0)
(0 1 -0)
(1 0 -0)
(0 1 -0)
(1 0 -0)
(-0 1 0)
(1 0 -0)
(0 1 -0)
(1 -0 0)
(0 1 -0)
(1 0 -0)
(0 1 -0)
(1 -0 0)
(0 1 -0)
(1 0 0)
(0 1 -0)
(1 0 -0)
(0 -0 1)
(1 0 0)
(0 -0 1)
(1 -0 0)
(0 -0 1)
(1 0 0)
(0 -1 -0)
(1 0 0)
(0 -1 0)
(1 0 0)
(0 -1 -0)
(1 0 -0)
(0 -0 1)
(1 0 0)
(0 -0 1)
(1 0 -0)
(0 -0 1)
(1 0 0)
(0 -1 -0)
(1 0 0)
(0 -1 -0)
(1 0 0)
(0 -1 -0)
(1 0 0)
(0 -1 -0)
(1 0 0)
(0 -1 -0)
(1 0 -0)
(0 -0 1)
(0 0 1)
(-1 0 0)
(0 -0 1)
(0 1 -0)
(0 0 1)
(-1 0 0)
(0 -0 1)
(0 1 0)
(0 0 1)
(-1 0 0)
(0 0 1)
(0 -1 0)
(0 0 1)
(0 -1 0)
(0 0 1)
(-1 0 0)
(0 0 1)
(-1 0 0)
(0 0 1)
(-1 0 0)
(0 0 1)
(-1 0 0)
(0 0 1)
(-1 0 0)
(0 0 1)
(-1 0 0)
(0 -0 1)
(1 0 0)
(0 -0 1)
(1 0 -0)
(0 -0 1)
(1 0 -0)
(0 -0 1)
(0 1 0)
(0 0 1)
(-1 -0 0)
(0 -0 1)
(0 1 0)
(0 0 1)
(-1 -0 0)
(0 0 1)
(0 -1 0)
(0 0 1)
(0 -1 0)
(0 -0 1)
(1 -0 0)
(0 -0 1)
(1 0 -0)
(0 0 1)
(-1 0 0)
(0 0 1)
(-1 -0 0)
(0 -0 1)
(1 0 0)
(0 -0 1)
(1 0 -0)
(0 0 1)
(-1 -0 0)
(0 0 1)
(-1 -0 0)
(0 0 1)
(-1 -0 0)
(0 -0 1)
(1 0 -0)
(1 -0 0)
(0 1 0)
(1 0 -0)
(-0 1 0)
(1 0 -0)
(0 1 -0)
(1 0 -0)
(-0 1 0)
(1 -0 0)
(0 1 0)
(1 0 -0)
(0 1 0)
(1 -0 0)
(0 1 0)
(1 0 0)
(-0 1 0)
(1 0 0)
(0 -1 0)
(1 0 0)
(0 -1 -0)
(1 0 0)
(0 -1 0)
(1 0 0)
(0 -1 0)
(1 0 0)
(0 -1 0)
(1 0 0)
(0 -1 0)
(1 0 0)
(0 -1 0)
(1 0 0)
(0 -1 0)
(-1 0 0)
(0 1 0)
(-1 0 0)
(-0 -1 0)
(-1 0 0)
(0 -1 0)
(-1 0 0)
(0 1 0)
(-1 0 0)
(0 1 0)
(-1 0 0)
(0 1 0)
(-1 0 -0)
(0 1 0)
(-1 0 0)
(0 1 0)
(-1 0 0)
(0 1 0)
(-1 -0 0)
(0 -1 0)
(-1 0 0)
(0 -1 0)
(-1 0 0)
(0 -1 0)
(-1 -0 0)
(0 -1 0)
(-1 0 0)
(0 -1 0)
(-1 0 0)
(0 -1 0)
(-1 0 0)
(0 -1 0)
(-1 -0 0)
(0 -1 0)
(-1 0 0)
(0 1 0)
(-1 0 0)
(0 1 0)
(-1 0 -0)
(0 1 0)
(0 0 1)
(0 1 -0)
(0 -0 1)
(0 1 -0)
(0 0 1)
(0 -1 0)
(0 0 1)
(0 -1 0)
(-1 0 0)
(0 1 0)
(-1 0 -0)
(0 1 0)
(-1 0 -0)
(0 1 0)
(-1 0 -0)
(0 1 0)
(-1 0 0)
(0 1 0)
(-1 0 -0)
(0 1 0)
(-1 0 0)
(0 1 0)
(-1 0 0)
(0 1 0)
(-1 0 0)
(0 -1 0)
(-1 0 0)
(0 -1 0)
(-1 -0 0)
(0 -1 0)
(-1 0 0)
(0 0 1)
(-1 0 0)
(0 0 1)
(-1 0 0)
(0 -1 0)
(-1 0 0)
(0 -1 0)
(-1 0 0)
(0 0 1)
(-1 0 0)
(0 -1 0)
(-1 0 0)
(-0 -1 0)
(-1 0 0)
(0 0 1)
(-1 0 0)
(0 0 1)
(-1 0 0)
(0 -1 0)
(-1 0 0)
(0 0 1)
(-1 0 0)
(0 0 1)
(-1 0 0)
(0 0 1)
(0 -0 1)
(1 0 0)
(0 -0 1)
(1 0 -0)
(0 -0 1)
(1 0 -0)
(0 -0 1)
(0 1 -0)
(0 -0 1)
(0 1 -0)
(0 0 1)
(0 -1 0)
(0 0 1)
(0 -1 0)
(0 -0 1)
(1 -0 0)
(0 -0 1)
(1 0 -0)
(0 -0 1)
(1 0 0)
(0 -0 1)
(1 0 -0)
(0 -0 1)
(1 0 -0)
(1 -0 0)
(0 1 -0)
(1 0 -0)
(0 1 -0)
(1 0 -0)
(-0 1 0)
(1 0 -0)
(0 1 -0)
(1 -0 0)
(0 1 -0)
(1 0 -0)
(0 1 -0)
(1 -0 0)
(0 1 -0)
(1 0 0)
(0 1 -0)
(1 0 0)
(0 -1 -0)
(1 0 0)
(0 -1 0)
(1 0 0)
(0 -1 -0)
(1 0 0)
(0 -1 -0)
(1 0 0)
(0 -1 -0)
(1 0 0)
(0 -1 -0)
(1 0 0)
(0 -1 -0)
(1 0 0)
(0 -1 -0)
(0 0 1)
(0 1 0)
(0 -0 1)
(0 1 -0)
(0 0 1)
(0 -1 0)
(0 0 1)
(0 -1 0)
(-1 0 0)
(0 1 0)
(-1 0 -0)
(0 1 0)
(-1 0 -0)
(0 1 0)
(-1 0 -0)
(0 1 0)
(-1 0 0)
(0 1 0)
(-1 0 -0)
(0 1 0)
(-1 0 0)
(0 1 0)
(-1 0 0)
(0 1 0)
(-1 0 0)
(0 -1 0)
(-1 0 0)
(0 -1 0)
(-1 -0 0)
(0 -1 0)
(-1 0 0)
(0 -1 0)
(-1 0 0)
(0 -1 0)
(-1 0 0)
(0 -1 0)
(-1 0 0)
(-0 -1 0)
(-1 0 0)
(-0 -1 0)
(-1 0 0)
(0 1 0)
(-1 0 -0)
(0 1 0)
(-1 0 -0)
(0 1 0)
(-1 0 -0)
(0 1 0)
(-1 0 0)
(0 1 0)
(-1 0 -0)
(0 1 0)
(-1 0 0)
(0 1 0)
(-1 0 0)
(0 1 0)
(-1 0 0)
(0 -1 0)
(-1 0 0)
(0 -1 0)
(-1 -0 0)
(0 -1 0)
(-1 0 0)
(0 0 1)
(-1 0 0)
(0 0 1)
(-1 0 0)
(-0 -1 0)
(-1 0 0)
(-0 -1 0)
(-1 0 0)
(0 0 1)
(-1 0 0)
(0 -1 0)
(-1 0 0)
(0 -1 0)
(-1 0 0)
(0 0 1)
(-1 0 0)
(0 0 1)
(-1 0 0)
(0 -1 0)
(-1 0 0)
(0 0 1)
(-1 0 0)
(0 0 1)
(-1 0 0)
(0 0 1)
(0 -0 1)
(1 -0 0)
(0 -0 1)
(1 0 0)
(0 -0 1)
(1 -0 0)
(0 -0 1)
(0 1 0)
(0 -0 1)
(0 1 0)
(0 0 1)
(0 -1 0)
(0 0 1)
(0 -1 0)
(0 -0 1)
(1 -0 0)
(0 -0 1)
(1 0 -0)
(0 -0 1)
(1 -0 0)
(0 -0 1)
(1 -0 0)
(0 -0 1)
(1 -0 0)
(0 1 -0)
(1 0 0)
(0 1 -0)
(1 0 0)
(0 1 -0)
(1 -0 0)
(-0 1 0)
(1 0 0)
(0 1 -0)
(1 0 0)
(0 1 -0)
(1 0 0)
(0 1 -0)
(1 -0 0)
(0 1 0)
(1 0 0)
(0 1 0)
(1 0 -0)
(0 1 -0)
(1 -0 0)
(0 -1 -0)
(1 0 0)
(0 -1 -0)
(1 0 0)
(0 -1 -0)
(1 0 0)
(0 -1 0)
(1 0 0)
(0 -1 -0)
(1 0 0)
(0 -1 -0)
(1 0 0)
(0 -1 -0)
(1 0 0)
(0 -1 0)
(1 0 0)
(0 -1 0)
(1 0 0)
(0 -1 -0)
(1 0 0)
(0 0 1)
(1 0 0)
(0 -0 1)
(-1 0 0)
(0 -0 1)
(-1 0 -0)
(0 0 1)
(-1 0 -0)
(0 0 1)
(1 0 0)
(0 0 1)
(1 0 0)
(0 0 1)
(-1 0 -0)
(0 0 1)
(1 0 0)
(0 -0 1)
(-1 0 0)
(0 0 1)
(1 0 0)
(-0 0 1)
(-1 0 0)
(0 0 1)
(1 0 0)
(0 0 1)
(1 0 0)
(0 0 1)
(1 0 0)
(0 -0 1)
(-1 0 -0)
(0 -0 1)
(-1 0 -0)
(1 0 0)
(0 0 1)
(1 0 0)
(0 0 1)
(1 0 0)
(0 0 1)
(1 0 0)
(0 0 1)
(1 0 0)
(0 0 1)
(1 0 0)
(0 0 1)
(1 0 0)
(0 0 1)
(1 0 0)
(0 0 1)
(0 -0 1)
(-1 0 0)
(0 -0 1)
(-1 0 -0)
(0 0 1)
(-1 0 -0)
(0 0 1)
(-1 0 -0)
(0 -0 1)
(-1 0 0)
(0 -0 1)
(-1 0 0)
(0 -0 1)
(-1 0 -0)
(0 -0 1)
(-1 0 -0)
(1 0 0)
(0 0 1)
(1 0 0)
(0 0 1)
(1 0 0)
(0 0 1)
(1 0 0)
(0 0 1)
(1 0 0)
(0 0 1)
(1 0 0)
(0 0 1)
(1 0 0)
(0 0 1)
(1 0 0)
(0 0 1)
(0 -0 1)
(-1 0 0)
(0 -0 1)
(-1 0 -0)
(0 0 1)
(-1 0 -0)
(0 0 1)
(-1 0 -0)
(0 -0 1)
(-1 0 0)
(-0 0 1)
(-1 0 0)
(0 -0 1)
(-1 0 -0)
(0 -0 1)
(-1 0 -0)
)

// normal volume types

624
(
0
0
0
0
0
0
0
0
0
0
0
0
0
0
0
0
0
0
0
0
0
0
0
0
0
0
0
0
0
0
0
0
0
0
0
0
0
0
0
0
0
0
0
0
0
0
0
0
0
0
0
0
0
0
0
0
0
0
0
0
0
0
0
0
0
0
0
0
0
0
0
0
0
0
0
0
0
0
0
0
0
0
0
0
0
0
0
0
0
0
0
0
0
0
0
0
0
0
0
0
0
0
0
0
0
0
0
0
0
0
0
0
0
0
0
0
0
0
0
0
0
0
0
0
0
0
0
0
0
0
0
0
0
0
0
0
0
0
0
0
0
0
0
0
0
0
0
0
0
0
0
0
0
0
0
0
0
0
0
0
0
0
0
0
0
0
0
0
0
0
0
0
0
0
0
0
0
0
0
0
0
0
0
0
0
0
0
0
0
0
0
0
0
0
0
0
0
0
0
0
0
0
0
0
0
0
0
0
0
0
0
0
0
0
0
0
0
0
0
0
0
0
0
0
0
0
0
0
0
0
0
0
0
0
0
0
0
0
0
0
0
0
0
0
0
0
0
0
0
0
0
0
0
0
0
0
0
0
0
0
0
0
0
0
0
0
0
0
0
0
0
0
0
0
0
0
0
0
0
0
0
0
0
0
0
0
0
0
0
0
0
0
0
0
0
0
0
0
0
0
0
0
0
0
0
0
0
0
0
0
0
0
0
0
0
0
0
0
0
0
0
0
0
0
0
0
0
0
0
0
0
0
0
0
0
0
0
0
0
0
0
0
0
0
0
0
0
0
0
0
0
0
0
0
0
0
0
0
0
0
0
0
0
0
0
0
0
0
0
0
0
0
0
0
0
0
0
0
0
0
0
0
0
0
0
0
0
0
0
0
0
0
0
0
0
0
0
0
0
0
0
0
0
0
0
0
0
0
0
0
0
0
0
0
0
0
0
0
0
0
0
0
0
0
0
0
0
0
0
0
0
0
0
0
0
0
0
0
0
0
0
0
0
0
0
0
0
0
0
0
0
0
0
0
0
0
0
0
0
0
0
0
0
0
0
0
0
0
0
0
0
0
0
0
0
0
0
0
0
0
0
0
0
0
0
0
0
0
0
0
0
0
0
0
0
0
0
0
0
0
0
0
0
0
0
0
0
0
0
0
0
0
0
0
0
0
0
0
0
0
0
0
0
0
0
0
0
0
0
0
0
0
0
0
0
0
0
0
0
0
0
0
0
0
0
0
0
0
0
0
0
0
0
0
0
0
0
0
0
0
0
0
0
0
0
0
0
0
0
0
0
0
0
0
0
0
0
0
0
0
0
0
0
0
0
0
0
0
0
0
0
0
0
0
0
0
0
0
0
0
0
0
0
0
0
0
0
0
0
0
0
0
0
0
0
0
0
0
0
0
0
0
0
0
)

// normalDirections

312
(
2(1 -1)
2(1 -1)
2(1 -1)
2(1 -1)
2(1 -1)
2(1 -1)
2(1 -1)
2(1 -1)
2(1 -1)
2(1 -1)
2(1 -1)
2(1 -1)
2(1 -1)
2(1 -1)
2(1 -1)
2(1 -1)
2(1 -1)
2(1 -1)
2(1 -1)
2(1 -1)
2(1 -1)
2(1 -1)
2(1 -1)
2(1 -1)
2(1 -1)
2(1 -1)
2(1 -1)
2(1 -1)
2(1 -1)
2(1 -1)
2(1 -1)
2(1 -1)
2(1 -1)
2(1 -1)
2(1 -1)
2(1 -1)
2(1 -1)
2(1 -1)
2(1 -1)
2(1 -1)
2(1 -1)
2(1 -1)
2(1 -1)
2(1 -1)
2(1 -1)
2(1 -1)
2(1 -1)
2(1 -1)
2(1 -1)
2(1 -1)
2(1 -1)
2(1 -1)
2(1 -1)
2(1 -1)
2(1 -1)
2(1 -1)
2(1 -1)
2(1 -1)
2(1 -1)
2(1 -1)
2(1 -1)
2(1 -1)
2(1 -1)
2(1 -1)
2(1 -1)
2(1 -1)
2(1 -1)
2(1 -1)
2(1 -1)
2(1 -1)
2(1 -1)
2(1 -1)
2(1 -1)
2(1 -1)
2(1 -1)
2(1 -1)
2(1 -1)
2(1 -1)
2(1 -1)
2(1 -1)
2(1 -1)
2(1 -1)
2(1 -1)
2(1 -1)
2(1 -1)
2(1 -1)
2(1 -1)
2(1 -1)
2(1 -1)
2(1 -1)
2(1 -1)
2(1 -1)
2(1 -1)
2(1 -1)
2(1 -1)
2(1 -1)
2(1 -1)
2(1 -1)
2(1 -1)
2(1 -1)
2(1 -1)
2(1 -1)
2(1 -1)
2(1 -1)
2(1 -1)
2(1 -1)
2(1 -1)
2(1 -1)
2(1 -1)
2(1 -1)
2(1 -1)
2(1 -1)
2(1 -1)
2(1 -1)
2(1 -1)
2(1 -1)
2(1 -1)
2(1 -1)
2(1 -1)
2(1 -1)
2(1 -1)
2(1 -1)
2(1 -1)
2(1 -1)
2(1 -1)
2(1 -1)
2(1 -1)
2(1 -1)
2(1 -1)
2(1 -1)
2(1 -1)
2(1 -1)
2(1 -1)
2(1 -1)
2(1 -1)
2(1 -1)
2(1 -1)
2(1 -1)
2(1 -1)
2(1 -1)
2(1 -1)
2(1 -1)
2(1 -1)
2(1 -1)
2(1 -1)
2(1 -1)
2(1 -1)
2(1 -1)
2(1 -1)
2(1 -1)
2(1 -1)
2(1 -1)
2(1 -1)
2(1 -1)
2(1 -1)
2(1 -1)
2(1 -1)
2(1 -1)
2(1 -1)
2(1 -1)
2(1 -1)
2(1 -1)
2(1 -1)
2(1 -1)
2(1 -1)
2(1 -1)
2(1 -1)
2(1 -1)
2(1 -1)
2(1 -1)
2(1 -1)
2(1 -1)
2(1 -1)
2(1 -1)
2(1 -1)
2(1 -1)
2(1 -1)
2(1 -1)
2(1 -1)
2(1 -1)
2(1 -1)
2(1 -1)
2(1 -1)
2(1 -1)
2(1 -1)
2(1 -1)
2(1 -1)
2(1 -1)
2(1 -1)
2(1 -1)
2(1 -1)
2(1 -1)
2(1 -1)
2(1 -1)
2(1 -1)
2(1 -1)
2(1 -1)
2(1 -1)
2(1 -1)
2(1 -1)
2(1 -1)
2(1 -1)
2(1 -1)
2(1 -1)
2(1 -1)
2(1 -1)
2(1 -1)
2(1 -1)
2(1 -1)
2(1 -1)
2(1 -1)
2(1 -1)
2(1 -1)
2(1 -1)
2(1 -1)
2(1 -1)
2(1 -1)
2(1 -1)
2(1 -1)
2(1 -1)
2(1 -1)
2(1 -1)
2(1 -1)
2(1 -1)
2(1 -1)
2(1 -1)
2(1 -1)
2(1 -1)
2(1 -1)
2(1 -1)
2(1 -1)
2(1 -1)
2(1 -1)
2(1 -1)
2(1 -1)
2(1 -1)
2(1 -1)
2(1 -1)
2(1 -1)
2(1 -1)
2(1 -1)
2(1 -1)
2(1 -1)
2(1 -1)
2(1 -1)
2(1 -1)
2(1 -1)
2(1 -1)
2(1 -1)
2(1 -1)
2(1 -1)
2(1 -1)
2(1 -1)
2(1 -1)
2(1 -1)
2(1 -1)
2(1 -1)
2(1 -1)
2(1 -1)
2(1 -1)
2(1 -1)
2(1 -1)
2(1 -1)
2(1 -1)
2(1 -1)
2(1 -1)
2(1 -1)
2(1 -1)
2(1 -1)
2(1 -1)
2(1 -1)
2(1 -1)
2(1 -1)
2(1 -1)
2(1 -1)
2(1 -1)
2(1 -1)
2(1 -1)
2(1 -1)
2(1 -1)
2(1 -1)
2(1 -1)
2(1 -1)
2(1 -1)
2(1 -1)
2(1 -1)
2(1 -1)
2(1 -1)
2(1 -1)
2(1 -1)
2(1 -1)
2(1 -1)
2(1 -1)
2(1 -1)
2(1 -1)
2(1 -1)
2(1 -1)
2(1 -1)
2(1 -1)
2(1 -1)
2(1 -1)
2(1 -1)
2(1 -1)
2(1 -1)
2(1 -1)
2(1 -1)
2(1 -1)
2(1 -1)
2(1 -1)
2(1 -1)
2(1 -1)
2(1 -1)
)

// edgeNormals

312
(
2(0 1)
2(2 3)
2(4 5)
2(6 7)
2(8 9)
2(10 11)
2(12 13)
2(14 15)
2(16 17)
2(18 19)
2(20 21)
2(22 23)
2(24 25)
2(26 27)
2(28 29)
2(30 31)
2(32 33)
2(34 35)
2(36 37)
2(38 39)
2(40 41)
2(42 43)
2(44 45)
2(46 47)
2(48 49)
2(50 51)
2(52 53)
2(54 55)
2(56 57)
2(58 59)
2(60 61)
2(62 63)
2(64 65)
2(66 67)
2(68 69)
2(70 71)
2(72 73)
2(74 75)
2(76 77)
2(78 79)
2(80 81)
2(82 83)
2(84 85)
2(86 87)
2(88 89)
2(90 91)
2(92 93)
2(94 95)
2(96 97)
2(98 99)
2(100 101)
2(102 103)
2(104 105)
2(106 107)
2(108 109)
2(110 111)
2(112 113)
2(114 115)
2(116 117)
2(118 119)
2(120 121)
2(122 123)
2(124 125)
2(126 127)
2(128 129)
2(130 131)
2(132 133)
2(134 135)
2(136 137)
2(138 139)
2(140 141)
2(142 143)
2(144 145)
2(146 147)
2(148 149)
2(150 151)
2(152 153)
2(154 155)
2(156 157)
2(158 159)
2(160 161)
2(162 163)
2(164 165)
2(166 167)
2(168 169)
2(170 171)
2(172 173)
2(174 175)
2(176 177)
2(178 179)
2(180 181)
2(182 183)
2(184 185)
2(186 187)
2(188 189)
2(190 191)
2(192 193)
2(194 195)
2(196 197)
2(198 199)
2(200 201)
2(202 203)
2(204 205)
2(206 207)
2(208 209)
2(210 211)
2(212 213)
2(214 215)
2(216 217)
2(218 219)
2(220 221)
2(222 223)
2(224 225)
2(226 227)
2(228 229)
2(230 231)
2(232 233)
2(234 235)
2(236 237)
2(238 239)
2(240 241)
2(242 243)
2(244 245)
2(246 247)
2(248 249)
2(250 251)
2(252 253)
2(254 255)
2(256 257)
2(258 259)
2(260 261)
2(262 263)
2(264 265)
2(266 267)
2(268 269)
2(270 271)
2(272 273)
2(274 275)
2(276 277)
2(278 279)
2(280 281)
2(282 283)
2(284 285)
2(286 287)
2(288 289)
2(290 291)
2(292 293)
2(294 295)
2(296 297)
2(298 299)
2(300 301)
2(302 303)
2(304 305)
2(306 307)
2(308 309)
2(310 311)
2(312 313)
2(314 315)
2(316 317)
2(318 319)
2(320 321)
2(322 323)
2(324 325)
2(326 327)
2(328 329)
2(330 331)
2(332 333)
2(334 335)
2(336 337)
2(338 339)
2(340 341)
2(342 343)
2(344 345)
2(346 347)
2(348 349)
2(350 351)
2(352 353)
2(354 355)
2(356 357)
2(358 359)
2(360 361)
2(362 363)
2(364 365)
2(366 367)
2(368 369)
2(370 371)
2(372 373)
2(374 375)
2(376 377)
2(378 379)
2(380 381)
2(382 383)
2(384 385)
2(386 387)
2(388 389)
2(390 391)
2(392 393)
2(394 395)
2(396 397)
2(398 399)
2(400 401)
2(402 403)
2(404 405)
2(406 407)
2(408 409)
2(410 411)
2(412 413)
2(414 415)
2(416 417)
2(418 419)
2(420 421)
2(422 423)
2(424 425)
2(426 427)
2(428 429)
2(430 431)
2(432 433)
2(434 435)
2(436 437)
2(438 439)
2(440 441)
2(442 443)
2(444 445)
2(446 447)
2(448 449)
2(450 451)
2(452 453)
2(454 455)
2(456 457)
2(458 459)
2(460 461)
2(462 463)
2(464 465)
2(466 467)
2(468 469)
2(470 471)
2(472 473)
2(474 475)
2(476 477)
2(478 479)
2(480 481)
2(482 483)
2(484 485)
2(486 487)
2(488 489)
2(490 491)
2(492 493)
2(494 495)
2(496 497)
2(498 499)
2(500 501)
2(502 503)
2(504 505)
2(506 507)
2(508 509)
2(510 511)
2(512 513)
2(514 515)
2(516 517)
2(518 519)
2(520 521)
2(522 523)
2(524 525)
2(526 527)
2(528 529)
2(530 531)
2(532 533)
2(534 535)
2(536 537)
2(538 539)
2(540 541)
2(542 543)
2(544 545)
2(546 547)
2(548 549)
2(550 551)
2(552 553)
2(554 555)
2(556 557)
2(558 559)
2(560 561)
2(562 563)
2(564 565)
2(566 567)
2(568 569)
2(570 571)
2(572 573)
2(574 575)
2(576 577)
2(578 579)
2(580 581)
2(582 583)
2(584 585)
2(586 587)
2(588 589)
2(590 591)
2(592 593)
2(594 595)
2(596 597)
2(598 599)
2(600 601)
2(602 603)
2(604 605)
2(606 607)
2(608 609)
2(610 611)
2(612 613)
2(614 615)
2(616 617)
2(618 619)
2(620 621)
2(622 623)
)

// featurePointNormals

32
(
3(0 1 3)
3(14 15 19)
3(28 29 35)
3(50 51 53)
3(80 81 83)
3(102 103 105)
3(132 133 135)
3(136 137 141)
3(158 159 161)
3(162 163 165)
3(166 167 171)
3(168 169 173)
3(284 285 319)
3(302 303 305)
3(324 325 327)
3(330 331 335)
3(428 429 463)
3(446 447 449)
3(468 469 471)
3(474 475 479)
3(72 73 416)
3(74 75 94)
3(76 77 120)
3(78 79 432)
3(204 205 266)
3(218 219 268)
3(264 265 272)
3(270 271 288)
3(356 357 378)
3(370 371 380)
3(376 377 384)
3(382 383 400)
)

// featurePointEdges

32
(
3(1 244 0)
3(9 260 7)
3(17 112 14)
3(25 114 26)
3(41 65 40)
3(52 69 51)
3(67 198 66)
3(70 205 68)
3(80 96 79)
3(82 118 81)
3(85 124 83)
3(86 104 84)
3(159 164 142)
3(152 166 151)
3(163 172 162)
3(167 180 165)
3(231 236 214)
3(224 238 223)
3(235 250 234)
3(239 254 237)
3(36 208 267)
3(268 47 37)
3(38 60 271)
3(272 216 39)
3(287 133 102)
3(283 134 109)
3(132 136 290)
3(292 144 135)
3(303 189 178)
3(299 190 185)
3(188 192 306)
3(308 200 191)
)

// regionEdges

36
(
0
1
2
3
4
5
6
7
8
9
10
11
12
13
14
15
16
17
18
19
20
21
22
23
24
25
26
27
28
29
30
31
32
33
34
35
)



// ************************************************************************* //
