/*--------------------------------*- C++ -*----------------------------------*\
| =========                 |                                                 |
| \\      /  F ield         | OpenFOAM: The Open Source CFD Toolbox           |
|  \\    /   O peration     | Version:  2212                                  |
|   \\  /    A nd           | Website:  www.openfoam.com                      |
|    \\/     M anipulation  |                                                 |
\*---------------------------------------------------------------------------*/
FoamFile
{
    version     2.0;
    format      ascii;
    arch        "LSB;label=32;scalar=64";
    class       featureEdgeMesh;
    location    "constant/triSurface";
    object      heatSink.eMesh;
}
// * * * * * * * * * * * * * * * * * * * * * * * * * * * * * * * * * * * * * //


// points:

296
(
(25 20 -4.4408921e-15)
(25 -20 4.4408921e-15)
(-25 20 -4.4408921e-15)
(-25 -20 4.4408921e-15)
(11 20 50)
(11 -20 50)
(3 20 50)
(3 -20 50)
(-17 20 50)
(-25 20 50)
(-25 -20 50)
(-17 -20 50)
(-11 20 50)
(-11 -20 50)
(-3 20 50)
(-3 -20 50)
(17 20 50)
(17 -20 50)
(25 20 50)
(25 -20 50)
(17 20 10)
(11 20 10)
(11 -20 10)
(17 -20 10)
(-17 20 10)
(-17 -20 10)
(-11 20 10)
(-11 -20 10)
(-3 20 10)
(-3 -20 10)
(3 20 10)
(3 -20 10)
(25 15 -3.3306691e-15)
(20 20 -4.4408921e-15)
(25 10 -2.220446e-15)
(25 5 -1.110223e-15)
(25 0 0)
(25 -5 1.110223e-15)
(25 -10 2.220446e-15)
(25 -15 3.3306691e-15)
(20 -20 4.4408921e-15)
(15 -20 4.4408921e-15)
(-5 20 -4.4408921e-15)
(0 20 -4.4408921e-15)
(5 20 -4.4408921e-15)
(-20 20 -4.4408921e-15)
(-15 20 -4.4408921e-15)
(-25 5 -1.110223e-15)
(-25 10 -2.220446e-15)
(-25 15 -3.3306691e-15)
(-10 20 -4.4408921e-15)
(5 -20 4.4408921e-15)
(0 -20 4.4408921e-15)
(-5 -20 4.4408921e-15)
(-10 -20 4.4408921e-15)
(-25 -5 1.110223e-15)
(-25 0 0)
(-25 -10 2.220446e-15)
(-20 -20 4.4408921e-15)
(-25 -15 3.3306691e-15)
(-15 -20 4.4408921e-15)
(10 -20 4.4408921e-15)
(10 20 -4.4408921e-15)
(15 20 -4.4408921e-15)
(14 20 10)
(14 -20 10)
(11 15 50)
(11 20 45)
(11 20 35)
(11 20 40)
(11 20 20)
(11 20 25)
(11 20 30)
(11 20 15)
(11 5 50)
(11 1.0658141e-14 50)
(11 10 50)
(11 -15 50)
(11 -20 45)
(11 -20 40)
(11 -20 35)
(11 -10 50)
(11 -5 50)
(11 -20 30)
(11 -20 25)
(11 -20 20)
(11 -20 15)
(3 15 50)
(3 10 50)
(7 20 50)
(3 -15 50)
(7 -20 50)
(3 -10 50)
(3 -5 50)
(3 5 50)
(3 1.0658141e-14 50)
(-25 15 50)
(-25 10 50)
(-17 5 50)
(-17 10 50)
(-17 15 50)
(-21 20 50)
(-25 -15 50)
(-21 -20 50)
(-17 -15 50)
(-17 -10 50)
(-25 -10 50)
(-25 -5 50)
(-17 -5 50)
(-17 1.0658141e-14 50)
(-25 5 50)
(-25 1.0658141e-14 50)
(-17 20 45)
(-17 20 35)
(-17 20 40)
(-17 20 20)
(-17 20 25)
(-17 20 30)
(-17 20 15)
(-17 -20 45)
(-17 -20 40)
(-17 -20 35)
(-17 -20 30)
(-17 -20 25)
(-17 -20 20)
(-17 -20 15)
(-25 20 5)
(-25 -20 5)
(-25 -20 10)
(-25 20 30)
(-25 20 25)
(-25 20 20)
(-25 20 45)
(-25 20 40)
(-25 20 35)
(-25 -20 20)
(-25 -20 25)
(-25 -20 30)
(-25 -20 35)
(-25 -20 45)
(-25 -20 40)
(-25 -20 15)
(-25 20 15)
(-25 20 10)
(-14 20 10)
(-14 -20 10)
(-11 20 15)
(-11 20 25)
(-11 20 20)
(-11 20 40)
(-11 20 35)
(-11 20 30)
(-11 20 45)
(-11 -20 15)
(-11 -20 20)
(-11 -20 25)
(-11 -5 50)
(-11 1.0658141e-14 50)
(-11 5 50)
(-11 -20 30)
(-11 -20 35)
(-11 -20 40)
(-11 -15 50)
(-11 -20 45)
(-11 -10 50)
(-11 10 50)
(-11 15 50)
(-3 5 50)
(-3 10 50)
(-3 15 50)
(-7 20 50)
(-7 -20 50)
(-3 -15 50)
(-3 -10 50)
(-3 -5 50)
(-3 1.0658141e-14 50)
(-3 20 45)
(-3 20 35)
(-3 20 40)
(-3 20 20)
(-3 20 25)
(-3 20 30)
(-3 20 15)
(-3 -20 45)
(-3 -20 40)
(-3 -20 35)
(-3 -20 30)
(-3 -20 25)
(-3 -20 20)
(-3 -20 15)
(0 20 10)
(0 -20 10)
(3 20 15)
(3 20 25)
(3 20 20)
(3 20 40)
(3 20 35)
(3 20 30)
(3 20 45)
(3 -20 15)
(3 -20 20)
(3 -20 25)
(3 -20 30)
(3 -20 35)
(3 -20 40)
(3 -20 45)
(17 20 15)
(17 20 25)
(17 20 20)
(17 20 40)
(17 20 35)
(17 20 30)
(17 20 45)
(17 -20 15)
(17 -20 20)
(17 -20 25)
(17 -5 50)
(17 1.0658141e-14 50)
(17 5 50)
(17 -20 30)
(17 -20 35)
(17 -20 40)
(17 -15 50)
(17 -20 45)
(17 -10 50)
(17 10 50)
(17 15 50)
(25 5 50)
(25 10 50)
(25 15 50)
(21 20 50)
(21 -20 50)
(25 -15 50)
(25 -10 50)
(25 -5 50)
(25 1.0658141e-14 50)
(25 20 5)
(25 20 15)
(25 20 10)
(25 20 20)
(25 20 30)
(25 20 25)
(25 20 35)
(25 20 45)
(25 20 40)
(25 -20 45)
(25 -20 35)
(25 -20 40)
(25 -20 30)
(25 -20 20)
(25 -20 25)
(25 -20 15)
(25 -20 5)
(25 -20 10)
(11 10 10)
(11 5 10)
(17 5 10)
(17 10 10)
(17 0 10)
(17 15 10)
(11 15 10)
(11 -15 10)
(17 -15 10)
(11 -10 10)
(17 -5 10)
(11 0 10)
(11 -5 10)
(17 -10 10)
(-17 -5 10)
(-17 0 10)
(-17 5 10)
(-17 -15 10)
(-17 -10 10)
(-17 10 10)
(-17 15 10)
(-11 5 10)
(-11 10 10)
(-11 0 10)
(-11 15 10)
(-11 -15 10)
(-11 -5 10)
(-11 -10 10)
(-3 -5 10)
(-3 0 10)
(-3 5 10)
(-3 -15 10)
(-3 -10 10)
(-3 10 10)
(-3 15 10)
(3 5 10)
(3 10 10)
(3 0 10)
(3 15 10)
(3 -15 10)
(3 -5 10)
(3 -10 10)
)


// edges:

312
(
(0 32)
(33 0)
(34 35)
(35 36)
(32 34)
(37 38)
(38 39)
(39 1)
(40 41)
(1 40)
(36 37)
(42 43)
(43 44)
(45 46)
(2 45)
(47 48)
(48 49)
(49 2)
(46 50)
(50 42)
(51 52)
(53 54)
(52 53)
(55 56)
(57 55)
(58 3)
(3 59)
(59 57)
(60 58)
(54 60)
(56 47)
(41 61)
(61 51)
(62 63)
(63 33)
(44 62)
(20 64)
(64 21)
(22 65)
(65 23)
(4 66)
(67 4)
(68 69)
(69 67)
(70 71)
(71 72)
(73 70)
(21 73)
(72 68)
(74 75)
(76 74)
(77 5)
(5 78)
(78 79)
(79 80)
(81 77)
(75 82)
(82 81)
(83 84)
(84 85)
(86 22)
(85 86)
(80 83)
(66 76)
(87 88)
(4 89)
(6 87)
(89 6)
(90 7)
(91 5)
(7 91)
(92 90)
(93 92)
(94 95)
(88 94)
(95 93)
(96 97)
(98 99)
(99 100)
(100 8)
(8 101)
(9 96)
(101 9)
(102 10)
(103 11)
(10 103)
(11 104)
(104 105)
(106 102)
(107 106)
(108 109)
(109 98)
(110 111)
(97 110)
(111 107)
(105 108)
(112 8)
(113 114)
(114 112)
(115 116)
(116 117)
(118 115)
(24 118)
(117 113)
(11 119)
(119 120)
(120 121)
(122 123)
(123 124)
(125 25)
(124 125)
(121 122)
(126 2)
(127 128)
(3 127)
(129 130)
(130 131)
(132 133)
(9 132)
(133 134)
(134 129)
(135 136)
(137 138)
(136 137)
(139 10)
(140 139)
(138 140)
(128 141)
(141 135)
(142 143)
(143 126)
(131 142)
(26 144)
(144 24)
(25 145)
(145 27)
(146 26)
(147 148)
(148 146)
(149 150)
(150 151)
(152 149)
(12 152)
(151 147)
(27 153)
(153 154)
(154 155)
(156 157)
(157 158)
(159 160)
(160 161)
(13 162)
(163 13)
(161 163)
(162 164)
(164 156)
(155 159)
(165 166)
(158 165)
(166 12)
(167 168)
(168 169)
(169 14)
(14 170)
(170 12)
(171 15)
(13 171)
(15 172)
(172 173)
(174 175)
(175 167)
(173 174)
(176 14)
(177 178)
(178 176)
(179 180)
(180 181)
(182 179)
(28 182)
(181 177)
(15 183)
(183 184)
(184 185)
(186 187)
(187 188)
(189 29)
(188 189)
(185 186)
(30 190)
(190 28)
(29 191)
(191 31)
(192 30)
(193 194)
(194 192)
(195 196)
(196 197)
(198 195)
(6 198)
(197 193)
(31 199)
(199 200)
(200 201)
(202 203)
(203 204)
(205 7)
(204 205)
(201 202)
(206 20)
(207 208)
(208 206)
(209 210)
(210 211)
(212 209)
(16 212)
(211 207)
(23 213)
(213 214)
(214 215)
(216 217)
(217 218)
(219 220)
(220 221)
(17 222)
(223 17)
(221 223)
(222 224)
(224 216)
(215 219)
(225 226)
(218 225)
(226 16)
(227 228)
(228 229)
(229 18)
(18 230)
(230 16)
(231 19)
(17 231)
(19 232)
(232 233)
(234 235)
(235 227)
(233 234)
(236 0)
(237 238)
(239 237)
(238 236)
(240 241)
(242 240)
(18 243)
(243 244)
(244 242)
(241 239)
(245 19)
(246 247)
(248 246)
(247 245)
(249 250)
(251 249)
(1 252)
(252 253)
(253 251)
(250 248)
(254 255)
(256 257)
(258 256)
(259 20)
(21 260)
(260 254)
(257 259)
(261 22)
(23 262)
(263 261)
(264 258)
(255 265)
(265 266)
(266 263)
(267 264)
(262 267)
(268 269)
(269 270)
(271 272)
(25 271)
(272 268)
(273 274)
(270 273)
(274 24)
(275 276)
(277 275)
(278 26)
(276 278)
(27 279)
(280 277)
(281 280)
(279 281)
(282 283)
(283 284)
(285 286)
(29 285)
(286 282)
(287 288)
(284 287)
(288 28)
(289 290)
(291 289)
(292 30)
(290 292)
(31 293)
(294 291)
(295 294)
(293 295)
)

// * * * * * * * * * * * * * * * * * * * * * * * * * * * * * * * * * * * * * //


// ************************************************************************* //
